                                  USG-TRANSPORT USG-TRANSPORT 
       FURTHER  DEVELOPMENTS BASED ON MODFLOW-USG
                      VERSION USG-TRANSPORT VERSION 2.02.0

 LIST FILE: hillslope.lst
                         UNIT    7

 OPENING hillslope.bas
 FILE TYPE:BAS6   UNIT    1   STATUS:OLD    
 FORMAT:FORMATTED              ACCESS:SEQUENTIAL          

 OPENING hillslope.sms
 FILE TYPE:SMS   UNIT   19   STATUS:OLD    
 FORMAT:FORMATTED              ACCESS:SEQUENTIAL          

 OPENING hillslope.dis
 FILE TYPE:DISU   UNIT   29   STATUS:OLD    
 FORMAT:FORMATTED              ACCESS:SEQUENTIAL          

 OPENING hillslope.oc
 FILE TYPE:OC   UNIT   22   STATUS:OLD    
 FORMAT:FORMATTED              ACCESS:SEQUENTIAL          

 OPENING hillslope.rch
 FILE TYPE:RCH   UNIT   18   STATUS:OLD    
 FORMAT:FORMATTED              ACCESS:SEQUENTIAL          

 OPENING hillslope.drn
 FILE TYPE:DRN   UNIT   13   STATUS:OLD    
 FORMAT:FORMATTED              ACCESS:SEQUENTIAL          

 OPENING hillslope_brooks.lpf
 FILE TYPE:LPF   UNIT   11   STATUS:OLD    
 FORMAT:FORMATTED              ACCESS:SEQUENTIAL          

 OPENING hillslope_FlowReduction.dat
 FILE TYPE:DATA   UNIT  166   STATUS:UNKNOWN
 FORMAT:FORMATTED              ACCESS:SEQUENTIAL          

 OPENING hillslope.gwf.cbb
 FILE TYPE:DATA(BINARY)   UNIT   50   STATUS:UNKNOWN
 FORMAT:UNFORMATTED            ACCESS:STREAM              

 OPENING hillslope.gwf.hds
 FILE TYPE:DATA(BINARY)   UNIT   30   STATUS:UNKNOWN
 FORMAT:UNFORMATTED            ACCESS:STREAM              

 OPENING hillslope.gwf.ddn
 FILE TYPE:DATA(BINARY)   UNIT   31   STATUS:UNKNOWN
 FORMAT:UNFORMATTED            ACCESS:STREAM              

 BAS -- BASIC PACKAGEUSG-TRANSPORT USG-TRANSPORT VERSION 2.02.0             INPUT READ FROM UNIT    1
 
 # MODFLOW-USGs Basic Package                                                    
 # MODFLOW Data Set Created by Groundwater Vistas                                
 #
 THE FREE FORMAT OPTION HAS BEEN SELECTED
 RICHARDS EQUATION SOLUTION
 THE UNSTRUCTURED GRID OPTION HAS BEEN SELECTED

 DIS -- UNSTRUCTURED GRID DISCRETIZATION PACKAGE, VERSION 1 : 5/17/2010 - INPUT READ FROM UNIT   29
      50000 NODES        50 NLAY    247900 NJAG  VERT. SUBDISCRETIZATION INDEX, IVSD = -1
 INDEX FOR INPUT OF UNSTRUCTURED, FINITE-VOLUME CONNECTIVITY INFORMATION, IDSYMRD =   0
    1 STRESS PERIOD(S) IN SIMULATION
 MODEL TIME UNIT IS YEARS
 MODEL LENGTH UNIT IS METERS
  Confining bed flag for each layer:
   0   0   0   0   0   0   0   0   0   0   0   0   0   0   0   0   0   0   0   0
   0   0   0   0   0   0   0   0   0   0   0   0   0   0   0   0   0   0   0   0
   0   0   0   0   0   0   0   0   0   0

 DIS -- UNSTRUCTURED GRID DISCRETIZATION PACKAGE, VERSION 1 : 5/17/2010 - INPUT READ FROM UNIT   29

   NO. OF NODES PER LAYER =      1000



                                TOP FOR LAYER   1
 READING ON UNIT   29 WITH FORMAT: (FREE)              



                                TOP FOR LAYER   2
 READING ON UNIT   29 WITH FORMAT: (FREE)              



                                TOP FOR LAYER   3
 READING ON UNIT   29 WITH FORMAT: (FREE)              



                                TOP FOR LAYER   4
 READING ON UNIT   29 WITH FORMAT: (FREE)              



                                TOP FOR LAYER   5
 READING ON UNIT   29 WITH FORMAT: (FREE)              



                                TOP FOR LAYER   6
 READING ON UNIT   29 WITH FORMAT: (FREE)              



                                TOP FOR LAYER   7
 READING ON UNIT   29 WITH FORMAT: (FREE)              



                                TOP FOR LAYER   8
 READING ON UNIT   29 WITH FORMAT: (FREE)              



                                TOP FOR LAYER   9
 READING ON UNIT   29 WITH FORMAT: (FREE)              



                                TOP FOR LAYER  10
 READING ON UNIT   29 WITH FORMAT: (FREE)              



                                TOP FOR LAYER  11
 READING ON UNIT   29 WITH FORMAT: (FREE)              



                                TOP FOR LAYER  12
 READING ON UNIT   29 WITH FORMAT: (FREE)              



                                TOP FOR LAYER  13
 READING ON UNIT   29 WITH FORMAT: (FREE)              



                                TOP FOR LAYER  14
 READING ON UNIT   29 WITH FORMAT: (FREE)              



                                TOP FOR LAYER  15
 READING ON UNIT   29 WITH FORMAT: (FREE)              



                                TOP FOR LAYER  16
 READING ON UNIT   29 WITH FORMAT: (FREE)              



                                TOP FOR LAYER  17
 READING ON UNIT   29 WITH FORMAT: (FREE)              



                                TOP FOR LAYER  18
 READING ON UNIT   29 WITH FORMAT: (FREE)              



                                TOP FOR LAYER  19
 READING ON UNIT   29 WITH FORMAT: (FREE)              



                                TOP FOR LAYER  20
 READING ON UNIT   29 WITH FORMAT: (FREE)              



                                TOP FOR LAYER  21
 READING ON UNIT   29 WITH FORMAT: (FREE)              



                                TOP FOR LAYER  22
 READING ON UNIT   29 WITH FORMAT: (FREE)              



                                TOP FOR LAYER  23
 READING ON UNIT   29 WITH FORMAT: (FREE)              



                                TOP FOR LAYER  24
 READING ON UNIT   29 WITH FORMAT: (FREE)              



                                TOP FOR LAYER  25
 READING ON UNIT   29 WITH FORMAT: (FREE)              



                                TOP FOR LAYER  26
 READING ON UNIT   29 WITH FORMAT: (FREE)              



                                TOP FOR LAYER  27
 READING ON UNIT   29 WITH FORMAT: (FREE)              



                                TOP FOR LAYER  28
 READING ON UNIT   29 WITH FORMAT: (FREE)              



                                TOP FOR LAYER  29
 READING ON UNIT   29 WITH FORMAT: (FREE)              



                                TOP FOR LAYER  30
 READING ON UNIT   29 WITH FORMAT: (FREE)              



                                TOP FOR LAYER  31
 READING ON UNIT   29 WITH FORMAT: (FREE)              



                                TOP FOR LAYER  32
 READING ON UNIT   29 WITH FORMAT: (FREE)              



                                TOP FOR LAYER  33
 READING ON UNIT   29 WITH FORMAT: (FREE)              



                                TOP FOR LAYER  34
 READING ON UNIT   29 WITH FORMAT: (FREE)              



                                TOP FOR LAYER  35
 READING ON UNIT   29 WITH FORMAT: (FREE)              



                                TOP FOR LAYER  36
 READING ON UNIT   29 WITH FORMAT: (FREE)              



                                TOP FOR LAYER  37
 READING ON UNIT   29 WITH FORMAT: (FREE)              



                                TOP FOR LAYER  38
 READING ON UNIT   29 WITH FORMAT: (FREE)              



                                TOP FOR LAYER  39
 READING ON UNIT   29 WITH FORMAT: (FREE)              



                                TOP FOR LAYER  40
 READING ON UNIT   29 WITH FORMAT: (FREE)              



                                TOP FOR LAYER  41
 READING ON UNIT   29 WITH FORMAT: (FREE)              



                                TOP FOR LAYER  42
 READING ON UNIT   29 WITH FORMAT: (FREE)              



                                TOP FOR LAYER  43
 READING ON UNIT   29 WITH FORMAT: (FREE)              



                                TOP FOR LAYER  44
 READING ON UNIT   29 WITH FORMAT: (FREE)              



                                TOP FOR LAYER  45
 READING ON UNIT   29 WITH FORMAT: (FREE)              



                                TOP FOR LAYER  46
 READING ON UNIT   29 WITH FORMAT: (FREE)              



                                TOP FOR LAYER  47
 READING ON UNIT   29 WITH FORMAT: (FREE)              



                                TOP FOR LAYER  48
 READING ON UNIT   29 WITH FORMAT: (FREE)              



                                TOP FOR LAYER  49
 READING ON UNIT   29 WITH FORMAT: (FREE)              



                                TOP FOR LAYER  50
 READING ON UNIT   29 WITH FORMAT: (FREE)              



                                BOT FOR LAYER   1
 READING ON UNIT   29 WITH FORMAT: (FREE)              



                                BOT FOR LAYER   2
 READING ON UNIT   29 WITH FORMAT: (FREE)              



                                BOT FOR LAYER   3
 READING ON UNIT   29 WITH FORMAT: (FREE)              



                                BOT FOR LAYER   4
 READING ON UNIT   29 WITH FORMAT: (FREE)              



                                BOT FOR LAYER   5
 READING ON UNIT   29 WITH FORMAT: (FREE)              



                                BOT FOR LAYER   6
 READING ON UNIT   29 WITH FORMAT: (FREE)              



                                BOT FOR LAYER   7
 READING ON UNIT   29 WITH FORMAT: (FREE)              



                                BOT FOR LAYER   8
 READING ON UNIT   29 WITH FORMAT: (FREE)              



                                BOT FOR LAYER   9
 READING ON UNIT   29 WITH FORMAT: (FREE)              



                                BOT FOR LAYER  10
 READING ON UNIT   29 WITH FORMAT: (FREE)              



                                BOT FOR LAYER  11
 READING ON UNIT   29 WITH FORMAT: (FREE)              



                                BOT FOR LAYER  12
 READING ON UNIT   29 WITH FORMAT: (FREE)              



                                BOT FOR LAYER  13
 READING ON UNIT   29 WITH FORMAT: (FREE)              



                                BOT FOR LAYER  14
 READING ON UNIT   29 WITH FORMAT: (FREE)              



                                BOT FOR LAYER  15
 READING ON UNIT   29 WITH FORMAT: (FREE)              



                                BOT FOR LAYER  16
 READING ON UNIT   29 WITH FORMAT: (FREE)              



                                BOT FOR LAYER  17
 READING ON UNIT   29 WITH FORMAT: (FREE)              



                                BOT FOR LAYER  18
 READING ON UNIT   29 WITH FORMAT: (FREE)              



                                BOT FOR LAYER  19
 READING ON UNIT   29 WITH FORMAT: (FREE)              



                                BOT FOR LAYER  20
 READING ON UNIT   29 WITH FORMAT: (FREE)              



                                BOT FOR LAYER  21
 READING ON UNIT   29 WITH FORMAT: (FREE)              



                                BOT FOR LAYER  22
 READING ON UNIT   29 WITH FORMAT: (FREE)              



                                BOT FOR LAYER  23
 READING ON UNIT   29 WITH FORMAT: (FREE)              



                                BOT FOR LAYER  24
 READING ON UNIT   29 WITH FORMAT: (FREE)              



                                BOT FOR LAYER  25
 READING ON UNIT   29 WITH FORMAT: (FREE)              



                                BOT FOR LAYER  26
 READING ON UNIT   29 WITH FORMAT: (FREE)              



                                BOT FOR LAYER  27
 READING ON UNIT   29 WITH FORMAT: (FREE)              



                                BOT FOR LAYER  28
 READING ON UNIT   29 WITH FORMAT: (FREE)              



                                BOT FOR LAYER  29
 READING ON UNIT   29 WITH FORMAT: (FREE)              



                                BOT FOR LAYER  30
 READING ON UNIT   29 WITH FORMAT: (FREE)              



                                BOT FOR LAYER  31
 READING ON UNIT   29 WITH FORMAT: (FREE)              



                                BOT FOR LAYER  32
 READING ON UNIT   29 WITH FORMAT: (FREE)              



                                BOT FOR LAYER  33
 READING ON UNIT   29 WITH FORMAT: (FREE)              



                                BOT FOR LAYER  34
 READING ON UNIT   29 WITH FORMAT: (FREE)              



                                BOT FOR LAYER  35
 READING ON UNIT   29 WITH FORMAT: (FREE)              



                                BOT FOR LAYER  36
 READING ON UNIT   29 WITH FORMAT: (FREE)              



                                BOT FOR LAYER  37
 READING ON UNIT   29 WITH FORMAT: (FREE)              



                                BOT FOR LAYER  38
 READING ON UNIT   29 WITH FORMAT: (FREE)              



                                BOT FOR LAYER  39
 READING ON UNIT   29 WITH FORMAT: (FREE)              



                                BOT FOR LAYER  40
 READING ON UNIT   29 WITH FORMAT: (FREE)              



                                BOT FOR LAYER  41
 READING ON UNIT   29 WITH FORMAT: (FREE)              



                                BOT FOR LAYER  42
 READING ON UNIT   29 WITH FORMAT: (FREE)              



                                BOT FOR LAYER  43
 READING ON UNIT   29 WITH FORMAT: (FREE)              



                                BOT FOR LAYER  44
 READING ON UNIT   29 WITH FORMAT: (FREE)              



                                BOT FOR LAYER  45
 READING ON UNIT   29 WITH FORMAT: (FREE)              



                                BOT FOR LAYER  46
 READING ON UNIT   29 WITH FORMAT: (FREE)              



                                BOT FOR LAYER  47
 READING ON UNIT   29 WITH FORMAT: (FREE)              



                                BOT FOR LAYER  48
 READING ON UNIT   29 WITH FORMAT: (FREE)              



                                BOT FOR LAYER  49
 READING ON UNIT   29 WITH FORMAT: (FREE)              



                                BOT FOR LAYER  50
 READING ON UNIT   29 WITH FORMAT: (FREE)              

                     AREA =   1.00000     FOR LAYER   1



                                 IA
 READING ON UNIT   29 WITH FORMAT: (FREE)              



                                 JA
 READING ON UNIT   29 WITH FORMAT: (FREE)              



               CONNECTION LENGTH 12 FOR LAYER   1
 READING ON UNIT   29 WITH FORMAT: (FREE)              



                 PERPENDICULAR AREA
 READING ON UNIT   29 WITH FORMAT: (FREE)              


 STRESS PERIOD     LENGTH       TIME STEPS     MULTIPLIER FOR DELT    SS FLAG
 ----------------------------------------------------------------------------
        1         100000.0          1                    1.500         TR

 TRANSIENT SIMULATION




           BOUNDARY ARRAY =         1 FOR LAYER   1

           BOUNDARY ARRAY =         1 FOR LAYER   2

           BOUNDARY ARRAY =         1 FOR LAYER   3

           BOUNDARY ARRAY =         1 FOR LAYER   4

           BOUNDARY ARRAY =         1 FOR LAYER   5

           BOUNDARY ARRAY =         1 FOR LAYER   6

           BOUNDARY ARRAY =         1 FOR LAYER   7

           BOUNDARY ARRAY =         1 FOR LAYER   8

           BOUNDARY ARRAY =         1 FOR LAYER   9

           BOUNDARY ARRAY =         1 FOR LAYER  10

           BOUNDARY ARRAY =         1 FOR LAYER  11

           BOUNDARY ARRAY =         1 FOR LAYER  12

           BOUNDARY ARRAY =         1 FOR LAYER  13

           BOUNDARY ARRAY =         1 FOR LAYER  14

           BOUNDARY ARRAY =         1 FOR LAYER  15

           BOUNDARY ARRAY =         1 FOR LAYER  16

           BOUNDARY ARRAY =         1 FOR LAYER  17

           BOUNDARY ARRAY =         1 FOR LAYER  18

           BOUNDARY ARRAY =         1 FOR LAYER  19

           BOUNDARY ARRAY =         1 FOR LAYER  20

           BOUNDARY ARRAY =         1 FOR LAYER  21

           BOUNDARY ARRAY =         1 FOR LAYER  22

           BOUNDARY ARRAY =         1 FOR LAYER  23

           BOUNDARY ARRAY =         1 FOR LAYER  24

           BOUNDARY ARRAY =         1 FOR LAYER  25

           BOUNDARY ARRAY =         1 FOR LAYER  26

           BOUNDARY ARRAY =         1 FOR LAYER  27

           BOUNDARY ARRAY =         1 FOR LAYER  28

           BOUNDARY ARRAY =         1 FOR LAYER  29

           BOUNDARY ARRAY =         1 FOR LAYER  30

           BOUNDARY ARRAY =         1 FOR LAYER  31

           BOUNDARY ARRAY =         1 FOR LAYER  32

           BOUNDARY ARRAY =         1 FOR LAYER  33

           BOUNDARY ARRAY =         1 FOR LAYER  34

           BOUNDARY ARRAY =         1 FOR LAYER  35

           BOUNDARY ARRAY =         1 FOR LAYER  36

           BOUNDARY ARRAY =         1 FOR LAYER  37

           BOUNDARY ARRAY =         1 FOR LAYER  38

           BOUNDARY ARRAY =         1 FOR LAYER  39

           BOUNDARY ARRAY =         1 FOR LAYER  40

           BOUNDARY ARRAY =         1 FOR LAYER  41

           BOUNDARY ARRAY =         1 FOR LAYER  42

           BOUNDARY ARRAY =         1 FOR LAYER  43

           BOUNDARY ARRAY =         1 FOR LAYER  44

           BOUNDARY ARRAY =         1 FOR LAYER  45

           BOUNDARY ARRAY =         1 FOR LAYER  46

           BOUNDARY ARRAY =         1 FOR LAYER  47

           BOUNDARY ARRAY =         1 FOR LAYER  48

           BOUNDARY ARRAY =         1 FOR LAYER  49



                     BOUNDARY ARRAY FOR LAYER  50
 READING ON UNIT    1 WITH FORMAT: (FREE)              

 AQUIFER HEAD WILL BE SET TO   999.00     AT ALL NO-FLOW NODES (IBOUND=0).

             INITIAL HEAD =   0.00000     FOR LAYER   1

             INITIAL HEAD =   0.00000     FOR LAYER   2

             INITIAL HEAD =   0.00000     FOR LAYER   3

             INITIAL HEAD =   0.00000     FOR LAYER   4

             INITIAL HEAD =   0.00000     FOR LAYER   5

             INITIAL HEAD =   0.00000     FOR LAYER   6

             INITIAL HEAD =   0.00000     FOR LAYER   7

             INITIAL HEAD =   0.00000     FOR LAYER   8

             INITIAL HEAD =   0.00000     FOR LAYER   9

             INITIAL HEAD =   0.00000     FOR LAYER  10

             INITIAL HEAD =   0.00000     FOR LAYER  11

             INITIAL HEAD =   0.00000     FOR LAYER  12

             INITIAL HEAD =   0.00000     FOR LAYER  13

             INITIAL HEAD =   0.00000     FOR LAYER  14

             INITIAL HEAD =   0.00000     FOR LAYER  15

             INITIAL HEAD =   0.00000     FOR LAYER  16

             INITIAL HEAD =   0.00000     FOR LAYER  17

             INITIAL HEAD =   0.00000     FOR LAYER  18

             INITIAL HEAD =   0.00000     FOR LAYER  19

             INITIAL HEAD =   0.00000     FOR LAYER  20

             INITIAL HEAD =   0.00000     FOR LAYER  21

             INITIAL HEAD =   0.00000     FOR LAYER  22

             INITIAL HEAD =   0.00000     FOR LAYER  23

             INITIAL HEAD =   0.00000     FOR LAYER  24

             INITIAL HEAD =   0.00000     FOR LAYER  25

             INITIAL HEAD =   0.00000     FOR LAYER  26

             INITIAL HEAD =   0.00000     FOR LAYER  27

             INITIAL HEAD =   0.00000     FOR LAYER  28

             INITIAL HEAD =   0.00000     FOR LAYER  29

             INITIAL HEAD =   0.00000     FOR LAYER  30

             INITIAL HEAD =   0.00000     FOR LAYER  31

             INITIAL HEAD =   0.00000     FOR LAYER  32

             INITIAL HEAD =   0.00000     FOR LAYER  33

             INITIAL HEAD =   0.00000     FOR LAYER  34

             INITIAL HEAD =   0.00000     FOR LAYER  35

             INITIAL HEAD =   0.00000     FOR LAYER  36

             INITIAL HEAD =   0.00000     FOR LAYER  37

             INITIAL HEAD =   0.00000     FOR LAYER  38

             INITIAL HEAD =   0.00000     FOR LAYER  39

             INITIAL HEAD =   0.00000     FOR LAYER  40

             INITIAL HEAD =   0.00000     FOR LAYER  41

             INITIAL HEAD =   0.00000     FOR LAYER  42

             INITIAL HEAD =   0.00000     FOR LAYER  43

             INITIAL HEAD =   0.00000     FOR LAYER  44

             INITIAL HEAD =   0.00000     FOR LAYER  45

             INITIAL HEAD =   0.00000     FOR LAYER  46

             INITIAL HEAD =   0.00000     FOR LAYER  47

             INITIAL HEAD =   0.00000     FOR LAYER  48

             INITIAL HEAD =   0.00000     FOR LAYER  49

             INITIAL HEAD =   0.00000     FOR LAYER  50

 ADAPTIVE TIME STEPPING PERFORMED. ATS VARIABLES WILL BE READ.
 -------------------------------------------------------------

          OUTPUT WILL BE PRINTED AT FOLLOWING       3 TIMES
          --------------------------------------------------
   1000.000       10000.00       100000.0    

 OUTPUT CONTROL IS SPECIFIED ONLY AT TIME STEPS FOR WHICH OUTPUT IS DESIRED
 HEAD PRINT FORMAT CODE IS   0    DRAWDOWN PRINT FORMAT CODE IS   0
 HEADS WILL BE SAVED ON UNIT   30    DRAWDOWNS WILL BE SAVED ON UNIT   31

 LPF -- LAYER-PROPERTY FLOW PACKAGE, VERSION 7, 5/2/2005
         INPUT READ FROM UNIT   11
 # MODFLOW-USG Layer Property Flow (LPF) Package
 CELL-BY-CELL FLOWS WILL BE SAVED ON UNIT   50
 HEAD AT CELLS THAT CONVERT TO DRY= -1.00000E+30
 No named parameters
 IKCFLAG=0, NODAL INPUT OF HY AND CV
 CONSTANTCV OPTION:
 Constant vertical conductance for convertible layers
 NOVFC OPTION:
 Do not apply the vertical flow correction

   LAYER FLAGS:
 LAYER       LAYTYP        LAYAVG         CHANI        LAYVKA        LAYWET
 ---------------------------------------------------------------------------
    1             4             0     1.000E+00             0             0
    2             4             0     1.000E+00             0             0
    3             4             0     1.000E+00             0             0
    4             4             0     1.000E+00             0             0
    5             4             0     1.000E+00             0             0
    6             4             0     1.000E+00             0             0
    7             4             0     1.000E+00             0             0
    8             4             0     1.000E+00             0             0
    9             4             0     1.000E+00             0             0
   10             4             0     1.000E+00             0             0
   11             4             0     1.000E+00             0             0
   12             4             0     1.000E+00             0             0
   13             4             0     1.000E+00             0             0
   14             4             0     1.000E+00             0             0
   15             4             0     1.000E+00             0             0
   16             4             0     1.000E+00             0             0
   17             4             0     1.000E+00             0             0
   18             4             0     1.000E+00             0             0
   19             4             0     1.000E+00             0             0
   20             4             0     1.000E+00             0             0
   21             4             0     1.000E+00             0             0
   22             4             0     1.000E+00             0             0
   23             4             0     1.000E+00             0             0
   24             4             0     1.000E+00             0             0
   25             4             0     1.000E+00             0             0
   26             4             0     1.000E+00             0             0
   27             4             0     1.000E+00             0             0
   28             4             0     1.000E+00             0             0
   29             4             0     1.000E+00             0             0
   30             4             0     1.000E+00             0             0
   31             4             0     1.000E+00             0             0
   32             4             0     1.000E+00             0             0
   33             4             0     1.000E+00             0             0
   34             4             0     1.000E+00             0             0
   35             4             0     1.000E+00             0             0
   36             4             0     1.000E+00             0             0
   37             4             0     1.000E+00             0             0
   38             4             0     1.000E+00             0             0
   39             4             0     1.000E+00             0             0
   40             4             0     1.000E+00             0             0
   41             4             0     1.000E+00             0             0
   42             4             0     1.000E+00             0             0
   43             4             0     1.000E+00             0             0
   44             4             0     1.000E+00             0             0
   45             4             0     1.000E+00             0             0
   46             4             0     1.000E+00             0             0
   47             4             0     1.000E+00             0             0
   48             4             0     1.000E+00             0             0
   49             4             0     1.000E+00             0             0
   50             4             0     1.000E+00             0             0

   INTERPRETATION OF LAYER FLAGS:
                        INTERBLOCK     HORIZONTAL    DATA IN
         LAYER TYPE   TRANSMISSIVITY   ANISOTROPY   ARRAY VKA   WETTABILITY
 LAYER      (LAYTYP)      (LAYAVG)       (CHANI)      (LAYVKA)      (LAYWET)
 ---------------------------------------------------------------------------
    1     UPSTREAM       HARMONIC     1.000E+00    VERTICAL K  NON-WETTABLE
    2     UPSTREAM       HARMONIC     1.000E+00    VERTICAL K  NON-WETTABLE
    3     UPSTREAM       HARMONIC     1.000E+00    VERTICAL K  NON-WETTABLE
    4     UPSTREAM       HARMONIC     1.000E+00    VERTICAL K  NON-WETTABLE
    5     UPSTREAM       HARMONIC     1.000E+00    VERTICAL K  NON-WETTABLE
    6     UPSTREAM       HARMONIC     1.000E+00    VERTICAL K  NON-WETTABLE
    7     UPSTREAM       HARMONIC     1.000E+00    VERTICAL K  NON-WETTABLE
    8     UPSTREAM       HARMONIC     1.000E+00    VERTICAL K  NON-WETTABLE
    9     UPSTREAM       HARMONIC     1.000E+00    VERTICAL K  NON-WETTABLE
   10     UPSTREAM       HARMONIC     1.000E+00    VERTICAL K  NON-WETTABLE
   11     UPSTREAM       HARMONIC     1.000E+00    VERTICAL K  NON-WETTABLE
   12     UPSTREAM       HARMONIC     1.000E+00    VERTICAL K  NON-WETTABLE
   13     UPSTREAM       HARMONIC     1.000E+00    VERTICAL K  NON-WETTABLE
   14     UPSTREAM       HARMONIC     1.000E+00    VERTICAL K  NON-WETTABLE
   15     UPSTREAM       HARMONIC     1.000E+00    VERTICAL K  NON-WETTABLE
   16     UPSTREAM       HARMONIC     1.000E+00    VERTICAL K  NON-WETTABLE
   17     UPSTREAM       HARMONIC     1.000E+00    VERTICAL K  NON-WETTABLE
   18     UPSTREAM       HARMONIC     1.000E+00    VERTICAL K  NON-WETTABLE
   19     UPSTREAM       HARMONIC     1.000E+00    VERTICAL K  NON-WETTABLE
   20     UPSTREAM       HARMONIC     1.000E+00    VERTICAL K  NON-WETTABLE
   21     UPSTREAM       HARMONIC     1.000E+00    VERTICAL K  NON-WETTABLE
   22     UPSTREAM       HARMONIC     1.000E+00    VERTICAL K  NON-WETTABLE
   23     UPSTREAM       HARMONIC     1.000E+00    VERTICAL K  NON-WETTABLE
   24     UPSTREAM       HARMONIC     1.000E+00    VERTICAL K  NON-WETTABLE
   25     UPSTREAM       HARMONIC     1.000E+00    VERTICAL K  NON-WETTABLE
   26     UPSTREAM       HARMONIC     1.000E+00    VERTICAL K  NON-WETTABLE
   27     UPSTREAM       HARMONIC     1.000E+00    VERTICAL K  NON-WETTABLE
   28     UPSTREAM       HARMONIC     1.000E+00    VERTICAL K  NON-WETTABLE
   29     UPSTREAM       HARMONIC     1.000E+00    VERTICAL K  NON-WETTABLE
   30     UPSTREAM       HARMONIC     1.000E+00    VERTICAL K  NON-WETTABLE
   31     UPSTREAM       HARMONIC     1.000E+00    VERTICAL K  NON-WETTABLE
   32     UPSTREAM       HARMONIC     1.000E+00    VERTICAL K  NON-WETTABLE
   33     UPSTREAM       HARMONIC     1.000E+00    VERTICAL K  NON-WETTABLE
   34     UPSTREAM       HARMONIC     1.000E+00    VERTICAL K  NON-WETTABLE
   35     UPSTREAM       HARMONIC     1.000E+00    VERTICAL K  NON-WETTABLE
   36     UPSTREAM       HARMONIC     1.000E+00    VERTICAL K  NON-WETTABLE
   37     UPSTREAM       HARMONIC     1.000E+00    VERTICAL K  NON-WETTABLE
   38     UPSTREAM       HARMONIC     1.000E+00    VERTICAL K  NON-WETTABLE
   39     UPSTREAM       HARMONIC     1.000E+00    VERTICAL K  NON-WETTABLE
   40     UPSTREAM       HARMONIC     1.000E+00    VERTICAL K  NON-WETTABLE
   41     UPSTREAM       HARMONIC     1.000E+00    VERTICAL K  NON-WETTABLE
   42     UPSTREAM       HARMONIC     1.000E+00    VERTICAL K  NON-WETTABLE
   43     UPSTREAM       HARMONIC     1.000E+00    VERTICAL K  NON-WETTABLE
   44     UPSTREAM       HARMONIC     1.000E+00    VERTICAL K  NON-WETTABLE
   45     UPSTREAM       HARMONIC     1.000E+00    VERTICAL K  NON-WETTABLE
   46     UPSTREAM       HARMONIC     1.000E+00    VERTICAL K  NON-WETTABLE
   47     UPSTREAM       HARMONIC     1.000E+00    VERTICAL K  NON-WETTABLE
   48     UPSTREAM       HARMONIC     1.000E+00    VERTICAL K  NON-WETTABLE
   49     UPSTREAM       HARMONIC     1.000E+00    VERTICAL K  NON-WETTABLE
   50     UPSTREAM       HARMONIC     1.000E+00    VERTICAL K  NON-WETTABLE

 WETTING CAPABILITY IS NOT ACTIVE IN ANY LAYER



              HYD. COND. ALONG ROWS FOR LAYER   1
 READING ON UNIT   11 WITH FORMAT: (FREE)              



                VERTICAL HYD. COND. FOR LAYER   1
 READING ON UNIT   11 WITH FORMAT: (FREE)              



                   SPECIFIC STORAGE FOR LAYER   1
 READING ON UNIT   11 WITH FORMAT: (FREE)              



                     SPECIFIC YIELD FOR LAYER   1
 READING ON UNIT   11 WITH FORMAT: (FREE)              



                              alpha FOR LAYER   1
 READING ON UNIT   11 WITH FORMAT: (FREE)              



                               beta FOR LAYER   1
 READING ON UNIT   11 WITH FORMAT: (FREE)              



                                 sr FOR LAYER   1
 READING ON UNIT   11 WITH FORMAT: (FREE)              



                              brook FOR LAYER   1
 READING ON UNIT   11 WITH FORMAT: (FREE)              



              HYD. COND. ALONG ROWS FOR LAYER   2
 READING ON UNIT   11 WITH FORMAT: (FREE)              



                VERTICAL HYD. COND. FOR LAYER   2
 READING ON UNIT   11 WITH FORMAT: (FREE)              



                   SPECIFIC STORAGE FOR LAYER   2
 READING ON UNIT   11 WITH FORMAT: (FREE)              



                     SPECIFIC YIELD FOR LAYER   2
 READING ON UNIT   11 WITH FORMAT: (FREE)              



                              alpha FOR LAYER   2
 READING ON UNIT   11 WITH FORMAT: (FREE)              



                               beta FOR LAYER   2
 READING ON UNIT   11 WITH FORMAT: (FREE)              



                                 sr FOR LAYER   2
 READING ON UNIT   11 WITH FORMAT: (FREE)              



                              brook FOR LAYER   2
 READING ON UNIT   11 WITH FORMAT: (FREE)              



              HYD. COND. ALONG ROWS FOR LAYER   3
 READING ON UNIT   11 WITH FORMAT: (FREE)              



                VERTICAL HYD. COND. FOR LAYER   3
 READING ON UNIT   11 WITH FORMAT: (FREE)              



                   SPECIFIC STORAGE FOR LAYER   3
 READING ON UNIT   11 WITH FORMAT: (FREE)              



                     SPECIFIC YIELD FOR LAYER   3
 READING ON UNIT   11 WITH FORMAT: (FREE)              



                              alpha FOR LAYER   3
 READING ON UNIT   11 WITH FORMAT: (FREE)              



                               beta FOR LAYER   3
 READING ON UNIT   11 WITH FORMAT: (FREE)              



                                 sr FOR LAYER   3
 READING ON UNIT   11 WITH FORMAT: (FREE)              



                              brook FOR LAYER   3
 READING ON UNIT   11 WITH FORMAT: (FREE)              



              HYD. COND. ALONG ROWS FOR LAYER   4
 READING ON UNIT   11 WITH FORMAT: (FREE)              



                VERTICAL HYD. COND. FOR LAYER   4
 READING ON UNIT   11 WITH FORMAT: (FREE)              



                   SPECIFIC STORAGE FOR LAYER   4
 READING ON UNIT   11 WITH FORMAT: (FREE)              



                     SPECIFIC YIELD FOR LAYER   4
 READING ON UNIT   11 WITH FORMAT: (FREE)              



                              alpha FOR LAYER   4
 READING ON UNIT   11 WITH FORMAT: (FREE)              



                               beta FOR LAYER   4
 READING ON UNIT   11 WITH FORMAT: (FREE)              



                                 sr FOR LAYER   4
 READING ON UNIT   11 WITH FORMAT: (FREE)              



                              brook FOR LAYER   4
 READING ON UNIT   11 WITH FORMAT: (FREE)              



              HYD. COND. ALONG ROWS FOR LAYER   5
 READING ON UNIT   11 WITH FORMAT: (FREE)              



                VERTICAL HYD. COND. FOR LAYER   5
 READING ON UNIT   11 WITH FORMAT: (FREE)              



                   SPECIFIC STORAGE FOR LAYER   5
 READING ON UNIT   11 WITH FORMAT: (FREE)              



                     SPECIFIC YIELD FOR LAYER   5
 READING ON UNIT   11 WITH FORMAT: (FREE)              



                              alpha FOR LAYER   5
 READING ON UNIT   11 WITH FORMAT: (FREE)              



                               beta FOR LAYER   5
 READING ON UNIT   11 WITH FORMAT: (FREE)              



                                 sr FOR LAYER   5
 READING ON UNIT   11 WITH FORMAT: (FREE)              



                              brook FOR LAYER   5
 READING ON UNIT   11 WITH FORMAT: (FREE)              



              HYD. COND. ALONG ROWS FOR LAYER   6
 READING ON UNIT   11 WITH FORMAT: (FREE)              



                VERTICAL HYD. COND. FOR LAYER   6
 READING ON UNIT   11 WITH FORMAT: (FREE)              



                   SPECIFIC STORAGE FOR LAYER   6
 READING ON UNIT   11 WITH FORMAT: (FREE)              



                     SPECIFIC YIELD FOR LAYER   6
 READING ON UNIT   11 WITH FORMAT: (FREE)              



                              alpha FOR LAYER   6
 READING ON UNIT   11 WITH FORMAT: (FREE)              



                               beta FOR LAYER   6
 READING ON UNIT   11 WITH FORMAT: (FREE)              



                                 sr FOR LAYER   6
 READING ON UNIT   11 WITH FORMAT: (FREE)              



                              brook FOR LAYER   6
 READING ON UNIT   11 WITH FORMAT: (FREE)              



              HYD. COND. ALONG ROWS FOR LAYER   7
 READING ON UNIT   11 WITH FORMAT: (FREE)              



                VERTICAL HYD. COND. FOR LAYER   7
 READING ON UNIT   11 WITH FORMAT: (FREE)              



                   SPECIFIC STORAGE FOR LAYER   7
 READING ON UNIT   11 WITH FORMAT: (FREE)              



                     SPECIFIC YIELD FOR LAYER   7
 READING ON UNIT   11 WITH FORMAT: (FREE)              



                              alpha FOR LAYER   7
 READING ON UNIT   11 WITH FORMAT: (FREE)              



                               beta FOR LAYER   7
 READING ON UNIT   11 WITH FORMAT: (FREE)              



                                 sr FOR LAYER   7
 READING ON UNIT   11 WITH FORMAT: (FREE)              



                              brook FOR LAYER   7
 READING ON UNIT   11 WITH FORMAT: (FREE)              



              HYD. COND. ALONG ROWS FOR LAYER   8
 READING ON UNIT   11 WITH FORMAT: (FREE)              



                VERTICAL HYD. COND. FOR LAYER   8
 READING ON UNIT   11 WITH FORMAT: (FREE)              



                   SPECIFIC STORAGE FOR LAYER   8
 READING ON UNIT   11 WITH FORMAT: (FREE)              



                     SPECIFIC YIELD FOR LAYER   8
 READING ON UNIT   11 WITH FORMAT: (FREE)              



                              alpha FOR LAYER   8
 READING ON UNIT   11 WITH FORMAT: (FREE)              



                               beta FOR LAYER   8
 READING ON UNIT   11 WITH FORMAT: (FREE)              



                                 sr FOR LAYER   8
 READING ON UNIT   11 WITH FORMAT: (FREE)              



                              brook FOR LAYER   8
 READING ON UNIT   11 WITH FORMAT: (FREE)              



              HYD. COND. ALONG ROWS FOR LAYER   9
 READING ON UNIT   11 WITH FORMAT: (FREE)              



                VERTICAL HYD. COND. FOR LAYER   9
 READING ON UNIT   11 WITH FORMAT: (FREE)              



                   SPECIFIC STORAGE FOR LAYER   9
 READING ON UNIT   11 WITH FORMAT: (FREE)              



                     SPECIFIC YIELD FOR LAYER   9
 READING ON UNIT   11 WITH FORMAT: (FREE)              



                              alpha FOR LAYER   9
 READING ON UNIT   11 WITH FORMAT: (FREE)              



                               beta FOR LAYER   9
 READING ON UNIT   11 WITH FORMAT: (FREE)              



                                 sr FOR LAYER   9
 READING ON UNIT   11 WITH FORMAT: (FREE)              



                              brook FOR LAYER   9
 READING ON UNIT   11 WITH FORMAT: (FREE)              



              HYD. COND. ALONG ROWS FOR LAYER  10
 READING ON UNIT   11 WITH FORMAT: (FREE)              



                VERTICAL HYD. COND. FOR LAYER  10
 READING ON UNIT   11 WITH FORMAT: (FREE)              



                   SPECIFIC STORAGE FOR LAYER  10
 READING ON UNIT   11 WITH FORMAT: (FREE)              



                     SPECIFIC YIELD FOR LAYER  10
 READING ON UNIT   11 WITH FORMAT: (FREE)              



                              alpha FOR LAYER  10
 READING ON UNIT   11 WITH FORMAT: (FREE)              



                               beta FOR LAYER  10
 READING ON UNIT   11 WITH FORMAT: (FREE)              



                                 sr FOR LAYER  10
 READING ON UNIT   11 WITH FORMAT: (FREE)              



                              brook FOR LAYER  10
 READING ON UNIT   11 WITH FORMAT: (FREE)              



              HYD. COND. ALONG ROWS FOR LAYER  11
 READING ON UNIT   11 WITH FORMAT: (FREE)              



                VERTICAL HYD. COND. FOR LAYER  11
 READING ON UNIT   11 WITH FORMAT: (FREE)              



                   SPECIFIC STORAGE FOR LAYER  11
 READING ON UNIT   11 WITH FORMAT: (FREE)              



                     SPECIFIC YIELD FOR LAYER  11
 READING ON UNIT   11 WITH FORMAT: (FREE)              



                              alpha FOR LAYER  11
 READING ON UNIT   11 WITH FORMAT: (FREE)              



                               beta FOR LAYER  11
 READING ON UNIT   11 WITH FORMAT: (FREE)              



                                 sr FOR LAYER  11
 READING ON UNIT   11 WITH FORMAT: (FREE)              



                              brook FOR LAYER  11
 READING ON UNIT   11 WITH FORMAT: (FREE)              



              HYD. COND. ALONG ROWS FOR LAYER  12
 READING ON UNIT   11 WITH FORMAT: (FREE)              



                VERTICAL HYD. COND. FOR LAYER  12
 READING ON UNIT   11 WITH FORMAT: (FREE)              



                   SPECIFIC STORAGE FOR LAYER  12
 READING ON UNIT   11 WITH FORMAT: (FREE)              



                     SPECIFIC YIELD FOR LAYER  12
 READING ON UNIT   11 WITH FORMAT: (FREE)              



                              alpha FOR LAYER  12
 READING ON UNIT   11 WITH FORMAT: (FREE)              



                               beta FOR LAYER  12
 READING ON UNIT   11 WITH FORMAT: (FREE)              



                                 sr FOR LAYER  12
 READING ON UNIT   11 WITH FORMAT: (FREE)              



                              brook FOR LAYER  12
 READING ON UNIT   11 WITH FORMAT: (FREE)              



              HYD. COND. ALONG ROWS FOR LAYER  13
 READING ON UNIT   11 WITH FORMAT: (FREE)              



                VERTICAL HYD. COND. FOR LAYER  13
 READING ON UNIT   11 WITH FORMAT: (FREE)              



                   SPECIFIC STORAGE FOR LAYER  13
 READING ON UNIT   11 WITH FORMAT: (FREE)              



                     SPECIFIC YIELD FOR LAYER  13
 READING ON UNIT   11 WITH FORMAT: (FREE)              



                              alpha FOR LAYER  13
 READING ON UNIT   11 WITH FORMAT: (FREE)              



                               beta FOR LAYER  13
 READING ON UNIT   11 WITH FORMAT: (FREE)              



                                 sr FOR LAYER  13
 READING ON UNIT   11 WITH FORMAT: (FREE)              



                              brook FOR LAYER  13
 READING ON UNIT   11 WITH FORMAT: (FREE)              



              HYD. COND. ALONG ROWS FOR LAYER  14
 READING ON UNIT   11 WITH FORMAT: (FREE)              



                VERTICAL HYD. COND. FOR LAYER  14
 READING ON UNIT   11 WITH FORMAT: (FREE)              



                   SPECIFIC STORAGE FOR LAYER  14
 READING ON UNIT   11 WITH FORMAT: (FREE)              



                     SPECIFIC YIELD FOR LAYER  14
 READING ON UNIT   11 WITH FORMAT: (FREE)              



                              alpha FOR LAYER  14
 READING ON UNIT   11 WITH FORMAT: (FREE)              



                               beta FOR LAYER  14
 READING ON UNIT   11 WITH FORMAT: (FREE)              



                                 sr FOR LAYER  14
 READING ON UNIT   11 WITH FORMAT: (FREE)              



                              brook FOR LAYER  14
 READING ON UNIT   11 WITH FORMAT: (FREE)              



              HYD. COND. ALONG ROWS FOR LAYER  15
 READING ON UNIT   11 WITH FORMAT: (FREE)              



                VERTICAL HYD. COND. FOR LAYER  15
 READING ON UNIT   11 WITH FORMAT: (FREE)              



                   SPECIFIC STORAGE FOR LAYER  15
 READING ON UNIT   11 WITH FORMAT: (FREE)              



                     SPECIFIC YIELD FOR LAYER  15
 READING ON UNIT   11 WITH FORMAT: (FREE)              



                              alpha FOR LAYER  15
 READING ON UNIT   11 WITH FORMAT: (FREE)              



                               beta FOR LAYER  15
 READING ON UNIT   11 WITH FORMAT: (FREE)              



                                 sr FOR LAYER  15
 READING ON UNIT   11 WITH FORMAT: (FREE)              



                              brook FOR LAYER  15
 READING ON UNIT   11 WITH FORMAT: (FREE)              



              HYD. COND. ALONG ROWS FOR LAYER  16
 READING ON UNIT   11 WITH FORMAT: (FREE)              



                VERTICAL HYD. COND. FOR LAYER  16
 READING ON UNIT   11 WITH FORMAT: (FREE)              



                   SPECIFIC STORAGE FOR LAYER  16
 READING ON UNIT   11 WITH FORMAT: (FREE)              



                     SPECIFIC YIELD FOR LAYER  16
 READING ON UNIT   11 WITH FORMAT: (FREE)              



                              alpha FOR LAYER  16
 READING ON UNIT   11 WITH FORMAT: (FREE)              



                               beta FOR LAYER  16
 READING ON UNIT   11 WITH FORMAT: (FREE)              



                                 sr FOR LAYER  16
 READING ON UNIT   11 WITH FORMAT: (FREE)              



                              brook FOR LAYER  16
 READING ON UNIT   11 WITH FORMAT: (FREE)              



              HYD. COND. ALONG ROWS FOR LAYER  17
 READING ON UNIT   11 WITH FORMAT: (FREE)              



                VERTICAL HYD. COND. FOR LAYER  17
 READING ON UNIT   11 WITH FORMAT: (FREE)              



                   SPECIFIC STORAGE FOR LAYER  17
 READING ON UNIT   11 WITH FORMAT: (FREE)              



                     SPECIFIC YIELD FOR LAYER  17
 READING ON UNIT   11 WITH FORMAT: (FREE)              



                              alpha FOR LAYER  17
 READING ON UNIT   11 WITH FORMAT: (FREE)              



                               beta FOR LAYER  17
 READING ON UNIT   11 WITH FORMAT: (FREE)              



                                 sr FOR LAYER  17
 READING ON UNIT   11 WITH FORMAT: (FREE)              



                              brook FOR LAYER  17
 READING ON UNIT   11 WITH FORMAT: (FREE)              



              HYD. COND. ALONG ROWS FOR LAYER  18
 READING ON UNIT   11 WITH FORMAT: (FREE)              



                VERTICAL HYD. COND. FOR LAYER  18
 READING ON UNIT   11 WITH FORMAT: (FREE)              



                   SPECIFIC STORAGE FOR LAYER  18
 READING ON UNIT   11 WITH FORMAT: (FREE)              



                     SPECIFIC YIELD FOR LAYER  18
 READING ON UNIT   11 WITH FORMAT: (FREE)              



                              alpha FOR LAYER  18
 READING ON UNIT   11 WITH FORMAT: (FREE)              



                               beta FOR LAYER  18
 READING ON UNIT   11 WITH FORMAT: (FREE)              



                                 sr FOR LAYER  18
 READING ON UNIT   11 WITH FORMAT: (FREE)              



                              brook FOR LAYER  18
 READING ON UNIT   11 WITH FORMAT: (FREE)              



              HYD. COND. ALONG ROWS FOR LAYER  19
 READING ON UNIT   11 WITH FORMAT: (FREE)              



                VERTICAL HYD. COND. FOR LAYER  19
 READING ON UNIT   11 WITH FORMAT: (FREE)              



                   SPECIFIC STORAGE FOR LAYER  19
 READING ON UNIT   11 WITH FORMAT: (FREE)              



                     SPECIFIC YIELD FOR LAYER  19
 READING ON UNIT   11 WITH FORMAT: (FREE)              



                              alpha FOR LAYER  19
 READING ON UNIT   11 WITH FORMAT: (FREE)              



                               beta FOR LAYER  19
 READING ON UNIT   11 WITH FORMAT: (FREE)              



                                 sr FOR LAYER  19
 READING ON UNIT   11 WITH FORMAT: (FREE)              



                              brook FOR LAYER  19
 READING ON UNIT   11 WITH FORMAT: (FREE)              



              HYD. COND. ALONG ROWS FOR LAYER  20
 READING ON UNIT   11 WITH FORMAT: (FREE)              



                VERTICAL HYD. COND. FOR LAYER  20
 READING ON UNIT   11 WITH FORMAT: (FREE)              



                   SPECIFIC STORAGE FOR LAYER  20
 READING ON UNIT   11 WITH FORMAT: (FREE)              



                     SPECIFIC YIELD FOR LAYER  20
 READING ON UNIT   11 WITH FORMAT: (FREE)              



                              alpha FOR LAYER  20
 READING ON UNIT   11 WITH FORMAT: (FREE)              



                               beta FOR LAYER  20
 READING ON UNIT   11 WITH FORMAT: (FREE)              



                                 sr FOR LAYER  20
 READING ON UNIT   11 WITH FORMAT: (FREE)              



                              brook FOR LAYER  20
 READING ON UNIT   11 WITH FORMAT: (FREE)              



              HYD. COND. ALONG ROWS FOR LAYER  21
 READING ON UNIT   11 WITH FORMAT: (FREE)              



                VERTICAL HYD. COND. FOR LAYER  21
 READING ON UNIT   11 WITH FORMAT: (FREE)              



                   SPECIFIC STORAGE FOR LAYER  21
 READING ON UNIT   11 WITH FORMAT: (FREE)              



                     SPECIFIC YIELD FOR LAYER  21
 READING ON UNIT   11 WITH FORMAT: (FREE)              



                              alpha FOR LAYER  21
 READING ON UNIT   11 WITH FORMAT: (FREE)              



                               beta FOR LAYER  21
 READING ON UNIT   11 WITH FORMAT: (FREE)              



                                 sr FOR LAYER  21
 READING ON UNIT   11 WITH FORMAT: (FREE)              



                              brook FOR LAYER  21
 READING ON UNIT   11 WITH FORMAT: (FREE)              



              HYD. COND. ALONG ROWS FOR LAYER  22
 READING ON UNIT   11 WITH FORMAT: (FREE)              



                VERTICAL HYD. COND. FOR LAYER  22
 READING ON UNIT   11 WITH FORMAT: (FREE)              



                   SPECIFIC STORAGE FOR LAYER  22
 READING ON UNIT   11 WITH FORMAT: (FREE)              



                     SPECIFIC YIELD FOR LAYER  22
 READING ON UNIT   11 WITH FORMAT: (FREE)              



                              alpha FOR LAYER  22
 READING ON UNIT   11 WITH FORMAT: (FREE)              



                               beta FOR LAYER  22
 READING ON UNIT   11 WITH FORMAT: (FREE)              



                                 sr FOR LAYER  22
 READING ON UNIT   11 WITH FORMAT: (FREE)              



                              brook FOR LAYER  22
 READING ON UNIT   11 WITH FORMAT: (FREE)              



              HYD. COND. ALONG ROWS FOR LAYER  23
 READING ON UNIT   11 WITH FORMAT: (FREE)              



                VERTICAL HYD. COND. FOR LAYER  23
 READING ON UNIT   11 WITH FORMAT: (FREE)              



                   SPECIFIC STORAGE FOR LAYER  23
 READING ON UNIT   11 WITH FORMAT: (FREE)              



                     SPECIFIC YIELD FOR LAYER  23
 READING ON UNIT   11 WITH FORMAT: (FREE)              



                              alpha FOR LAYER  23
 READING ON UNIT   11 WITH FORMAT: (FREE)              



                               beta FOR LAYER  23
 READING ON UNIT   11 WITH FORMAT: (FREE)              



                                 sr FOR LAYER  23
 READING ON UNIT   11 WITH FORMAT: (FREE)              



                              brook FOR LAYER  23
 READING ON UNIT   11 WITH FORMAT: (FREE)              



              HYD. COND. ALONG ROWS FOR LAYER  24
 READING ON UNIT   11 WITH FORMAT: (FREE)              



                VERTICAL HYD. COND. FOR LAYER  24
 READING ON UNIT   11 WITH FORMAT: (FREE)              



                   SPECIFIC STORAGE FOR LAYER  24
 READING ON UNIT   11 WITH FORMAT: (FREE)              



                     SPECIFIC YIELD FOR LAYER  24
 READING ON UNIT   11 WITH FORMAT: (FREE)              



                              alpha FOR LAYER  24
 READING ON UNIT   11 WITH FORMAT: (FREE)              



                               beta FOR LAYER  24
 READING ON UNIT   11 WITH FORMAT: (FREE)              



                                 sr FOR LAYER  24
 READING ON UNIT   11 WITH FORMAT: (FREE)              



                              brook FOR LAYER  24
 READING ON UNIT   11 WITH FORMAT: (FREE)              



              HYD. COND. ALONG ROWS FOR LAYER  25
 READING ON UNIT   11 WITH FORMAT: (FREE)              



                VERTICAL HYD. COND. FOR LAYER  25
 READING ON UNIT   11 WITH FORMAT: (FREE)              



                   SPECIFIC STORAGE FOR LAYER  25
 READING ON UNIT   11 WITH FORMAT: (FREE)              



                     SPECIFIC YIELD FOR LAYER  25
 READING ON UNIT   11 WITH FORMAT: (FREE)              



                              alpha FOR LAYER  25
 READING ON UNIT   11 WITH FORMAT: (FREE)              



                               beta FOR LAYER  25
 READING ON UNIT   11 WITH FORMAT: (FREE)              



                                 sr FOR LAYER  25
 READING ON UNIT   11 WITH FORMAT: (FREE)              



                              brook FOR LAYER  25
 READING ON UNIT   11 WITH FORMAT: (FREE)              



              HYD. COND. ALONG ROWS FOR LAYER  26
 READING ON UNIT   11 WITH FORMAT: (FREE)              



                VERTICAL HYD. COND. FOR LAYER  26
 READING ON UNIT   11 WITH FORMAT: (FREE)              



                   SPECIFIC STORAGE FOR LAYER  26
 READING ON UNIT   11 WITH FORMAT: (FREE)              



                     SPECIFIC YIELD FOR LAYER  26
 READING ON UNIT   11 WITH FORMAT: (FREE)              



                              alpha FOR LAYER  26
 READING ON UNIT   11 WITH FORMAT: (FREE)              



                               beta FOR LAYER  26
 READING ON UNIT   11 WITH FORMAT: (FREE)              



                                 sr FOR LAYER  26
 READING ON UNIT   11 WITH FORMAT: (FREE)              



                              brook FOR LAYER  26
 READING ON UNIT   11 WITH FORMAT: (FREE)              



              HYD. COND. ALONG ROWS FOR LAYER  27
 READING ON UNIT   11 WITH FORMAT: (FREE)              



                VERTICAL HYD. COND. FOR LAYER  27
 READING ON UNIT   11 WITH FORMAT: (FREE)              



                   SPECIFIC STORAGE FOR LAYER  27
 READING ON UNIT   11 WITH FORMAT: (FREE)              



                     SPECIFIC YIELD FOR LAYER  27
 READING ON UNIT   11 WITH FORMAT: (FREE)              



                              alpha FOR LAYER  27
 READING ON UNIT   11 WITH FORMAT: (FREE)              



                               beta FOR LAYER  27
 READING ON UNIT   11 WITH FORMAT: (FREE)              



                                 sr FOR LAYER  27
 READING ON UNIT   11 WITH FORMAT: (FREE)              



                              brook FOR LAYER  27
 READING ON UNIT   11 WITH FORMAT: (FREE)              



              HYD. COND. ALONG ROWS FOR LAYER  28
 READING ON UNIT   11 WITH FORMAT: (FREE)              



                VERTICAL HYD. COND. FOR LAYER  28
 READING ON UNIT   11 WITH FORMAT: (FREE)              



                   SPECIFIC STORAGE FOR LAYER  28
 READING ON UNIT   11 WITH FORMAT: (FREE)              



                     SPECIFIC YIELD FOR LAYER  28
 READING ON UNIT   11 WITH FORMAT: (FREE)              



                              alpha FOR LAYER  28
 READING ON UNIT   11 WITH FORMAT: (FREE)              



                               beta FOR LAYER  28
 READING ON UNIT   11 WITH FORMAT: (FREE)              



                                 sr FOR LAYER  28
 READING ON UNIT   11 WITH FORMAT: (FREE)              



                              brook FOR LAYER  28
 READING ON UNIT   11 WITH FORMAT: (FREE)              



              HYD. COND. ALONG ROWS FOR LAYER  29
 READING ON UNIT   11 WITH FORMAT: (FREE)              



                VERTICAL HYD. COND. FOR LAYER  29
 READING ON UNIT   11 WITH FORMAT: (FREE)              



                   SPECIFIC STORAGE FOR LAYER  29
 READING ON UNIT   11 WITH FORMAT: (FREE)              



                     SPECIFIC YIELD FOR LAYER  29
 READING ON UNIT   11 WITH FORMAT: (FREE)              



                              alpha FOR LAYER  29
 READING ON UNIT   11 WITH FORMAT: (FREE)              



                               beta FOR LAYER  29
 READING ON UNIT   11 WITH FORMAT: (FREE)              



                                 sr FOR LAYER  29
 READING ON UNIT   11 WITH FORMAT: (FREE)              



                              brook FOR LAYER  29
 READING ON UNIT   11 WITH FORMAT: (FREE)              



              HYD. COND. ALONG ROWS FOR LAYER  30
 READING ON UNIT   11 WITH FORMAT: (FREE)              



                VERTICAL HYD. COND. FOR LAYER  30
 READING ON UNIT   11 WITH FORMAT: (FREE)              



                   SPECIFIC STORAGE FOR LAYER  30
 READING ON UNIT   11 WITH FORMAT: (FREE)              



                     SPECIFIC YIELD FOR LAYER  30
 READING ON UNIT   11 WITH FORMAT: (FREE)              



                              alpha FOR LAYER  30
 READING ON UNIT   11 WITH FORMAT: (FREE)              



                               beta FOR LAYER  30
 READING ON UNIT   11 WITH FORMAT: (FREE)              



                                 sr FOR LAYER  30
 READING ON UNIT   11 WITH FORMAT: (FREE)              



                              brook FOR LAYER  30
 READING ON UNIT   11 WITH FORMAT: (FREE)              



              HYD. COND. ALONG ROWS FOR LAYER  31
 READING ON UNIT   11 WITH FORMAT: (FREE)              



                VERTICAL HYD. COND. FOR LAYER  31
 READING ON UNIT   11 WITH FORMAT: (FREE)              



                   SPECIFIC STORAGE FOR LAYER  31
 READING ON UNIT   11 WITH FORMAT: (FREE)              



                     SPECIFIC YIELD FOR LAYER  31
 READING ON UNIT   11 WITH FORMAT: (FREE)              



                              alpha FOR LAYER  31
 READING ON UNIT   11 WITH FORMAT: (FREE)              



                               beta FOR LAYER  31
 READING ON UNIT   11 WITH FORMAT: (FREE)              



                                 sr FOR LAYER  31
 READING ON UNIT   11 WITH FORMAT: (FREE)              



                              brook FOR LAYER  31
 READING ON UNIT   11 WITH FORMAT: (FREE)              



              HYD. COND. ALONG ROWS FOR LAYER  32
 READING ON UNIT   11 WITH FORMAT: (FREE)              



                VERTICAL HYD. COND. FOR LAYER  32
 READING ON UNIT   11 WITH FORMAT: (FREE)              



                   SPECIFIC STORAGE FOR LAYER  32
 READING ON UNIT   11 WITH FORMAT: (FREE)              



                     SPECIFIC YIELD FOR LAYER  32
 READING ON UNIT   11 WITH FORMAT: (FREE)              



                              alpha FOR LAYER  32
 READING ON UNIT   11 WITH FORMAT: (FREE)              



                               beta FOR LAYER  32
 READING ON UNIT   11 WITH FORMAT: (FREE)              



                                 sr FOR LAYER  32
 READING ON UNIT   11 WITH FORMAT: (FREE)              



                              brook FOR LAYER  32
 READING ON UNIT   11 WITH FORMAT: (FREE)              



              HYD. COND. ALONG ROWS FOR LAYER  33
 READING ON UNIT   11 WITH FORMAT: (FREE)              



                VERTICAL HYD. COND. FOR LAYER  33
 READING ON UNIT   11 WITH FORMAT: (FREE)              



                   SPECIFIC STORAGE FOR LAYER  33
 READING ON UNIT   11 WITH FORMAT: (FREE)              



                     SPECIFIC YIELD FOR LAYER  33
 READING ON UNIT   11 WITH FORMAT: (FREE)              



                              alpha FOR LAYER  33
 READING ON UNIT   11 WITH FORMAT: (FREE)              



                               beta FOR LAYER  33
 READING ON UNIT   11 WITH FORMAT: (FREE)              



                                 sr FOR LAYER  33
 READING ON UNIT   11 WITH FORMAT: (FREE)              



                              brook FOR LAYER  33
 READING ON UNIT   11 WITH FORMAT: (FREE)              



              HYD. COND. ALONG ROWS FOR LAYER  34
 READING ON UNIT   11 WITH FORMAT: (FREE)              



                VERTICAL HYD. COND. FOR LAYER  34
 READING ON UNIT   11 WITH FORMAT: (FREE)              



                   SPECIFIC STORAGE FOR LAYER  34
 READING ON UNIT   11 WITH FORMAT: (FREE)              



                     SPECIFIC YIELD FOR LAYER  34
 READING ON UNIT   11 WITH FORMAT: (FREE)              



                              alpha FOR LAYER  34
 READING ON UNIT   11 WITH FORMAT: (FREE)              



                               beta FOR LAYER  34
 READING ON UNIT   11 WITH FORMAT: (FREE)              



                                 sr FOR LAYER  34
 READING ON UNIT   11 WITH FORMAT: (FREE)              



                              brook FOR LAYER  34
 READING ON UNIT   11 WITH FORMAT: (FREE)              



              HYD. COND. ALONG ROWS FOR LAYER  35
 READING ON UNIT   11 WITH FORMAT: (FREE)              



                VERTICAL HYD. COND. FOR LAYER  35
 READING ON UNIT   11 WITH FORMAT: (FREE)              



                   SPECIFIC STORAGE FOR LAYER  35
 READING ON UNIT   11 WITH FORMAT: (FREE)              



                     SPECIFIC YIELD FOR LAYER  35
 READING ON UNIT   11 WITH FORMAT: (FREE)              



                              alpha FOR LAYER  35
 READING ON UNIT   11 WITH FORMAT: (FREE)              



                               beta FOR LAYER  35
 READING ON UNIT   11 WITH FORMAT: (FREE)              



                                 sr FOR LAYER  35
 READING ON UNIT   11 WITH FORMAT: (FREE)              



                              brook FOR LAYER  35
 READING ON UNIT   11 WITH FORMAT: (FREE)              



              HYD. COND. ALONG ROWS FOR LAYER  36
 READING ON UNIT   11 WITH FORMAT: (FREE)              



                VERTICAL HYD. COND. FOR LAYER  36
 READING ON UNIT   11 WITH FORMAT: (FREE)              



                   SPECIFIC STORAGE FOR LAYER  36
 READING ON UNIT   11 WITH FORMAT: (FREE)              



                     SPECIFIC YIELD FOR LAYER  36
 READING ON UNIT   11 WITH FORMAT: (FREE)              



                              alpha FOR LAYER  36
 READING ON UNIT   11 WITH FORMAT: (FREE)              



                               beta FOR LAYER  36
 READING ON UNIT   11 WITH FORMAT: (FREE)              



                                 sr FOR LAYER  36
 READING ON UNIT   11 WITH FORMAT: (FREE)              



                              brook FOR LAYER  36
 READING ON UNIT   11 WITH FORMAT: (FREE)              



              HYD. COND. ALONG ROWS FOR LAYER  37
 READING ON UNIT   11 WITH FORMAT: (FREE)              



                VERTICAL HYD. COND. FOR LAYER  37
 READING ON UNIT   11 WITH FORMAT: (FREE)              



                   SPECIFIC STORAGE FOR LAYER  37
 READING ON UNIT   11 WITH FORMAT: (FREE)              



                     SPECIFIC YIELD FOR LAYER  37
 READING ON UNIT   11 WITH FORMAT: (FREE)              



                              alpha FOR LAYER  37
 READING ON UNIT   11 WITH FORMAT: (FREE)              



                               beta FOR LAYER  37
 READING ON UNIT   11 WITH FORMAT: (FREE)              



                                 sr FOR LAYER  37
 READING ON UNIT   11 WITH FORMAT: (FREE)              



                              brook FOR LAYER  37
 READING ON UNIT   11 WITH FORMAT: (FREE)              



              HYD. COND. ALONG ROWS FOR LAYER  38
 READING ON UNIT   11 WITH FORMAT: (FREE)              



                VERTICAL HYD. COND. FOR LAYER  38
 READING ON UNIT   11 WITH FORMAT: (FREE)              



                   SPECIFIC STORAGE FOR LAYER  38
 READING ON UNIT   11 WITH FORMAT: (FREE)              



                     SPECIFIC YIELD FOR LAYER  38
 READING ON UNIT   11 WITH FORMAT: (FREE)              



                              alpha FOR LAYER  38
 READING ON UNIT   11 WITH FORMAT: (FREE)              



                               beta FOR LAYER  38
 READING ON UNIT   11 WITH FORMAT: (FREE)              



                                 sr FOR LAYER  38
 READING ON UNIT   11 WITH FORMAT: (FREE)              



                              brook FOR LAYER  38
 READING ON UNIT   11 WITH FORMAT: (FREE)              



              HYD. COND. ALONG ROWS FOR LAYER  39
 READING ON UNIT   11 WITH FORMAT: (FREE)              



                VERTICAL HYD. COND. FOR LAYER  39
 READING ON UNIT   11 WITH FORMAT: (FREE)              



                   SPECIFIC STORAGE FOR LAYER  39
 READING ON UNIT   11 WITH FORMAT: (FREE)              



                     SPECIFIC YIELD FOR LAYER  39
 READING ON UNIT   11 WITH FORMAT: (FREE)              



                              alpha FOR LAYER  39
 READING ON UNIT   11 WITH FORMAT: (FREE)              



                               beta FOR LAYER  39
 READING ON UNIT   11 WITH FORMAT: (FREE)              



                                 sr FOR LAYER  39
 READING ON UNIT   11 WITH FORMAT: (FREE)              



                              brook FOR LAYER  39
 READING ON UNIT   11 WITH FORMAT: (FREE)              



              HYD. COND. ALONG ROWS FOR LAYER  40
 READING ON UNIT   11 WITH FORMAT: (FREE)              



                VERTICAL HYD. COND. FOR LAYER  40
 READING ON UNIT   11 WITH FORMAT: (FREE)              



                   SPECIFIC STORAGE FOR LAYER  40
 READING ON UNIT   11 WITH FORMAT: (FREE)              



                     SPECIFIC YIELD FOR LAYER  40
 READING ON UNIT   11 WITH FORMAT: (FREE)              



                              alpha FOR LAYER  40
 READING ON UNIT   11 WITH FORMAT: (FREE)              



                               beta FOR LAYER  40
 READING ON UNIT   11 WITH FORMAT: (FREE)              



                                 sr FOR LAYER  40
 READING ON UNIT   11 WITH FORMAT: (FREE)              



                              brook FOR LAYER  40
 READING ON UNIT   11 WITH FORMAT: (FREE)              



              HYD. COND. ALONG ROWS FOR LAYER  41
 READING ON UNIT   11 WITH FORMAT: (FREE)              



                VERTICAL HYD. COND. FOR LAYER  41
 READING ON UNIT   11 WITH FORMAT: (FREE)              



                   SPECIFIC STORAGE FOR LAYER  41
 READING ON UNIT   11 WITH FORMAT: (FREE)              



                     SPECIFIC YIELD FOR LAYER  41
 READING ON UNIT   11 WITH FORMAT: (FREE)              



                              alpha FOR LAYER  41
 READING ON UNIT   11 WITH FORMAT: (FREE)              



                               beta FOR LAYER  41
 READING ON UNIT   11 WITH FORMAT: (FREE)              



                                 sr FOR LAYER  41
 READING ON UNIT   11 WITH FORMAT: (FREE)              



                              brook FOR LAYER  41
 READING ON UNIT   11 WITH FORMAT: (FREE)              



              HYD. COND. ALONG ROWS FOR LAYER  42
 READING ON UNIT   11 WITH FORMAT: (FREE)              



                VERTICAL HYD. COND. FOR LAYER  42
 READING ON UNIT   11 WITH FORMAT: (FREE)              



                   SPECIFIC STORAGE FOR LAYER  42
 READING ON UNIT   11 WITH FORMAT: (FREE)              



                     SPECIFIC YIELD FOR LAYER  42
 READING ON UNIT   11 WITH FORMAT: (FREE)              



                              alpha FOR LAYER  42
 READING ON UNIT   11 WITH FORMAT: (FREE)              



                               beta FOR LAYER  42
 READING ON UNIT   11 WITH FORMAT: (FREE)              



                                 sr FOR LAYER  42
 READING ON UNIT   11 WITH FORMAT: (FREE)              



                              brook FOR LAYER  42
 READING ON UNIT   11 WITH FORMAT: (FREE)              



              HYD. COND. ALONG ROWS FOR LAYER  43
 READING ON UNIT   11 WITH FORMAT: (FREE)              



                VERTICAL HYD. COND. FOR LAYER  43
 READING ON UNIT   11 WITH FORMAT: (FREE)              



                   SPECIFIC STORAGE FOR LAYER  43
 READING ON UNIT   11 WITH FORMAT: (FREE)              



                     SPECIFIC YIELD FOR LAYER  43
 READING ON UNIT   11 WITH FORMAT: (FREE)              



                              alpha FOR LAYER  43
 READING ON UNIT   11 WITH FORMAT: (FREE)              



                               beta FOR LAYER  43
 READING ON UNIT   11 WITH FORMAT: (FREE)              



                                 sr FOR LAYER  43
 READING ON UNIT   11 WITH FORMAT: (FREE)              



                              brook FOR LAYER  43
 READING ON UNIT   11 WITH FORMAT: (FREE)              



              HYD. COND. ALONG ROWS FOR LAYER  44
 READING ON UNIT   11 WITH FORMAT: (FREE)              



                VERTICAL HYD. COND. FOR LAYER  44
 READING ON UNIT   11 WITH FORMAT: (FREE)              



                   SPECIFIC STORAGE FOR LAYER  44
 READING ON UNIT   11 WITH FORMAT: (FREE)              



                     SPECIFIC YIELD FOR LAYER  44
 READING ON UNIT   11 WITH FORMAT: (FREE)              



                              alpha FOR LAYER  44
 READING ON UNIT   11 WITH FORMAT: (FREE)              



                               beta FOR LAYER  44
 READING ON UNIT   11 WITH FORMAT: (FREE)              



                                 sr FOR LAYER  44
 READING ON UNIT   11 WITH FORMAT: (FREE)              



                              brook FOR LAYER  44
 READING ON UNIT   11 WITH FORMAT: (FREE)              



              HYD. COND. ALONG ROWS FOR LAYER  45
 READING ON UNIT   11 WITH FORMAT: (FREE)              



                VERTICAL HYD. COND. FOR LAYER  45
 READING ON UNIT   11 WITH FORMAT: (FREE)              



                   SPECIFIC STORAGE FOR LAYER  45
 READING ON UNIT   11 WITH FORMAT: (FREE)              



                     SPECIFIC YIELD FOR LAYER  45
 READING ON UNIT   11 WITH FORMAT: (FREE)              



                              alpha FOR LAYER  45
 READING ON UNIT   11 WITH FORMAT: (FREE)              



                               beta FOR LAYER  45
 READING ON UNIT   11 WITH FORMAT: (FREE)              



                                 sr FOR LAYER  45
 READING ON UNIT   11 WITH FORMAT: (FREE)              



                              brook FOR LAYER  45
 READING ON UNIT   11 WITH FORMAT: (FREE)              



              HYD. COND. ALONG ROWS FOR LAYER  46
 READING ON UNIT   11 WITH FORMAT: (FREE)              



                VERTICAL HYD. COND. FOR LAYER  46
 READING ON UNIT   11 WITH FORMAT: (FREE)              



                   SPECIFIC STORAGE FOR LAYER  46
 READING ON UNIT   11 WITH FORMAT: (FREE)              



                     SPECIFIC YIELD FOR LAYER  46
 READING ON UNIT   11 WITH FORMAT: (FREE)              



                              alpha FOR LAYER  46
 READING ON UNIT   11 WITH FORMAT: (FREE)              



                               beta FOR LAYER  46
 READING ON UNIT   11 WITH FORMAT: (FREE)              



                                 sr FOR LAYER  46
 READING ON UNIT   11 WITH FORMAT: (FREE)              



                              brook FOR LAYER  46
 READING ON UNIT   11 WITH FORMAT: (FREE)              



              HYD. COND. ALONG ROWS FOR LAYER  47
 READING ON UNIT   11 WITH FORMAT: (FREE)              



                VERTICAL HYD. COND. FOR LAYER  47
 READING ON UNIT   11 WITH FORMAT: (FREE)              



                   SPECIFIC STORAGE FOR LAYER  47
 READING ON UNIT   11 WITH FORMAT: (FREE)              



                     SPECIFIC YIELD FOR LAYER  47
 READING ON UNIT   11 WITH FORMAT: (FREE)              



                              alpha FOR LAYER  47
 READING ON UNIT   11 WITH FORMAT: (FREE)              



                               beta FOR LAYER  47
 READING ON UNIT   11 WITH FORMAT: (FREE)              



                                 sr FOR LAYER  47
 READING ON UNIT   11 WITH FORMAT: (FREE)              



                              brook FOR LAYER  47
 READING ON UNIT   11 WITH FORMAT: (FREE)              



              HYD. COND. ALONG ROWS FOR LAYER  48
 READING ON UNIT   11 WITH FORMAT: (FREE)              



                VERTICAL HYD. COND. FOR LAYER  48
 READING ON UNIT   11 WITH FORMAT: (FREE)              



                   SPECIFIC STORAGE FOR LAYER  48
 READING ON UNIT   11 WITH FORMAT: (FREE)              



                     SPECIFIC YIELD FOR LAYER  48
 READING ON UNIT   11 WITH FORMAT: (FREE)              



                              alpha FOR LAYER  48
 READING ON UNIT   11 WITH FORMAT: (FREE)              



                               beta FOR LAYER  48
 READING ON UNIT   11 WITH FORMAT: (FREE)              



                                 sr FOR LAYER  48
 READING ON UNIT   11 WITH FORMAT: (FREE)              



                              brook FOR LAYER  48
 READING ON UNIT   11 WITH FORMAT: (FREE)              



              HYD. COND. ALONG ROWS FOR LAYER  49
 READING ON UNIT   11 WITH FORMAT: (FREE)              



                VERTICAL HYD. COND. FOR LAYER  49
 READING ON UNIT   11 WITH FORMAT: (FREE)              



                   SPECIFIC STORAGE FOR LAYER  49
 READING ON UNIT   11 WITH FORMAT: (FREE)              



                     SPECIFIC YIELD FOR LAYER  49
 READING ON UNIT   11 WITH FORMAT: (FREE)              



                              alpha FOR LAYER  49
 READING ON UNIT   11 WITH FORMAT: (FREE)              



                               beta FOR LAYER  49
 READING ON UNIT   11 WITH FORMAT: (FREE)              



                                 sr FOR LAYER  49
 READING ON UNIT   11 WITH FORMAT: (FREE)              



                              brook FOR LAYER  49
 READING ON UNIT   11 WITH FORMAT: (FREE)              



              HYD. COND. ALONG ROWS FOR LAYER  50
 READING ON UNIT   11 WITH FORMAT: (FREE)              



                VERTICAL HYD. COND. FOR LAYER  50
 READING ON UNIT   11 WITH FORMAT: (FREE)              



                   SPECIFIC STORAGE FOR LAYER  50
 READING ON UNIT   11 WITH FORMAT: (FREE)              



                     SPECIFIC YIELD FOR LAYER  50
 READING ON UNIT   11 WITH FORMAT: (FREE)              



                              alpha FOR LAYER  50
 READING ON UNIT   11 WITH FORMAT: (FREE)              



                               beta FOR LAYER  50
 READING ON UNIT   11 WITH FORMAT: (FREE)              



                                 sr FOR LAYER  50
 READING ON UNIT   11 WITH FORMAT: (FREE)              



                              brook FOR LAYER  50
 READING ON UNIT   11 WITH FORMAT: (FREE)              

 DRN -- DRAIN PACKAGE, VERSION 7, 5/2/2005 INPUT READ FROM UNIT   13
 # MODFLOW-USGs Drain Package
 No named parameters
 MAXIMUM OF   1000 ACTIVE DRAINS AT ONE TIME
 CELL-BY-CELL FLOWS WILL BE SAVED ON UNIT   50


     0 Drain parameters

 RCH -- RECHARGE PACKAGE, VERSION 7, 5/2/2005 INPUT READ FROM UNIT   18
 # MODFLOW-USGs Recharge Package
 No named parameters
 OPTION 3 -- RECHARGE TO HIGHEST ACTIVE NODE IN EACH VERTICAL COLUMN
 CELL-BY-CELL FLOWS WILL BE SAVED ON UNIT   50


     0 Recharge parameters

 SMS -- SPARSE MATRIX SOLVER PACKAGE, VERSION 7, 5/2/2005
         INPUT READ FROM UNIT 19
 # SMS file tagged by Modflow-User-Tools version       1.05
 #------------------------------------------------------------------------------------------
 #1b.     HCLOSE   HICLOSE      MXITER    ITER1     IPRSMS  NONLINMETH  LINMETH   Options...
 No named parameters
  ALL SOLVER INPUT DATA WILL BE READ FROM THE SOLVER INPUT FILE. 
 ONLY ACTIVE NODES WILL BE PASSED TO THE SOLVER
 BOTTOM DAMPING APPLIED TO EACH LINEAR SOLUTION
 # HCLOSEis the head change criterion for convergence of the outer (nonlinear)
 #    iterations, in units of length. When the maximum absolute value of the head
 #    change at all nodes during an iteration is less than or equal to HCLOSE,
 #    iteration stops. Commonly, HCLOSE equals 0.01.
 #
 #HICLOSEis the head change criterion for convergence of the inner (linear)
 #    iterations, in units of length. When the maximum absolute value of the head
 #    change at all nodes during an iteration is less than or equal to HICLOSE, the
 #    matrix solver assumes convergence. Commonly, HICLOSE is set an order of
 #    magnitude less than HCLOSE.
 #
 #MXITERis the maximum number of outer (nonlinear) iterations -- that is,
 #    calls to the solution routine. For a linear problem MXITER should be 1.
 #
 #    ITER1is the maximum number of inner (linear) iterations. The number
 #    typically depends on the characteristics of the matrix solution scheme being
 #    used. For nonlinear problems,
 #
 #    ITER1 usually ranges from 60 to 600; a value of 100 will be sufficient for
 #    most linear problems.
 #
 #IPRSMSis a flag that controls printing of convergence information from the solver:
 #    0  print nothing
 #    1  print only the total number of iterations and nonlinear residual reduction summaries
 #    2  print matrix solver information in addition to above
 #
 #NONLINMETHis a flag that controls the nonlinear solution method and under-relaxation schemes
 #
 #    0  Picard iteration scheme is used without any under-relaxation schemes involved
 #
 #    > 0  Newton-Raphson iteration scheme is used with under-relaxation. Note
 #    that the Newton-Raphson linearization scheme is available only for the
 #    upstream weighted solution scheme of the BCF and LPF packages.
 #
 #    < 0  Picard iteration scheme is used with under-relaxation.
 #
 #    The absolute value of NONLINMETH determines the underrelaxation scheme used.
 #    1 or -1  Delta-Bar-Delta under-relaxation is used.
 #    2 or -2  Cooley under-relaxation scheme is used.
 #
 #    Note that the under-relaxation schemes are used in conjunction with
 #    gradient based methods, however, experience has indicated that the Cooley
 #    under-relaxation and damping work well also for the Picard scheme with
 #    the wet/dry options of MODFLOW.
 #
 #LINMETHis a flag that controls the matrix solution method
 #    1  the MD solver of Ibaraki (2005) is used.
 #    2  the unstructured pre-conditioned conjugate gradient solver of White
 #    and Hughes (2011) is used.
 #
 #----------------------------------------------------------------------------------------
 #2.    THETA     AKAPPA      GAMMA     AMOMENTUM    NUMTRACK  BTOL      BREDUC     RESLIM
 OUTER ITERATION CONVERGENCE CRITERION (HCLOSE) =    0.100000E-02
 INNER ITERATION CONVERGENCE CRITERION (HICLOSE) =    0.100000E-04
 MAXIMUM NUMBER OF OUTER ITERATIONS (MXITER)     =        20
 MAXIMUM NUMBER OF INNER ITERATIONS (ITER1)      =       500
 SOLVER PRINTOUT INDEX             (IPRSMS)      =         1
 NONLINEAR ITERATION METHOD    (NONLINMETH)      =         1
 LINEAR SOLUTION METHOD           (LINMETH)      =         1
 D-B-D WEIGHT REDUCTION FACTOR      (THETA)      =    0.700000E+00
 D-B-D WEIGHT INCREASE INCREMENT    (KAPPA)      =    0.100000E+00
 D-B-D PREVIOUS HISTORY FACTOR      (GAMMA)      =    0.100000E+00
 MOMENTUM TERM                  (AMOMENTUM)      =    0.000000E+00
 MAXIMUM NUMBER OF BACKTRACKS    (NUMTRACK)      =       200
 BACKTRACKING TOLERANCE FACTOR       (BTOL)      =    0.100000E+01
 BACKTRACKING REDUCTION FACTOR     (BREDUC)      =    0.200000E+00
 BACKTRACKING RESIDUAL LIMIT      (RES_LIM)      =    0.100000E+01
 TRUNCATED NEWTON FLAG     (ITRUNCNEWTON)      =         0
 ***Newton Linearization will be used***
 
 ***XMD linear solver will be used***
 XMD -- LINEAR SOLUTION BY XMD PACKAGE VERSION 1.30
     BY MOTOMU IBARAKI, OHIO STATE UNIVERSITY, COLOMBUS, OH
                 INPUT READ FROM UNIT 19
 #THETAis the reduction factor for the learning rate (under-relaxation term)
 #    of the delta-bar-delta algorithm. The value of THETA is between zero and one.
 #    If the change in the variable (head) is of opposite sign to that of the
 #    previous iteration, the under-relaxation term is reduced by a factor of
 #    THETA. The value usually ranges from 0.3 to 0.9; a value of 0.7 works well
 #    for most problems.
 #
 #AKAPPAis the increment for the learning rate (under-relaxation term) of the
 #    delta-bar-delta algorithm. The value of AKAPPA is between zero and one. If
 #    the change in the variable (head) is of the same sign to that of the previous
 #    iteration, the under-relaxation term is increased by an increment of AKAPPA.
 #    The value usually ranges from 0.03 to 0.3; a value of 0.1 works well for most
 #    problems.
 #
 #GAMMAis the history or memory term factor of the delta-bar-delta algorithm.
 #    Gamma is between zero and 1 but cannot be equal to one. When GAMMA is zero,
 #    only the most recent history (previous iteration value) is maintained. As
 #    GAMMA is increased, past history of iteration changes has greater influence
 #    on the memory term. The memory term is maintained as an exponential average
 #    of past changes. Retaining some past history can overcome granular behavior
 #    in the calculated function surface and therefore helps to overcome cyclic
 #    patterns of non-convergence. The value usually ranges from 0.1 to 0.3; a
 #    value of 0.2 works well for most problems.
 #
 #AMOMENTUMis the fraction of past history changes that is added as a momentum
 #    term to the step change for a nonlinear iteration. The value of AMOMENTUM is
 #    between zero and one. A large momentum term should only be used when small
 #    learning rates are expected. Small amounts of the momentum term help
 #    convergence. The value usually ranges from 0.0001 to 0.1; a value of 0.001
 #    works well for most problems.
 #
 #NUMTRACKis the maximum number of backtracking iterations allowed for
 #    residual reduction computations. If NUMTRACK = 0 then the backtracking
[...]
                    SECONDS     MINUTES      HOURS       DAYS        YEARS
                    -----------------------------------------------------------
   TIME STEP LENGTH 3.15576E+10 5.25960E+08 8.76600E+06 3.65250E+05  1000.0    
 STRESS PERIOD TIME 2.98630E+12 4.97717E+10 8.29529E+08 3.45637E+07  94630.    
         TOTAL TIME 2.98630E+12 4.97717E+10 8.29529E+08 3.45637E+07  94630.    
1
 -------------------------------------------------------------------------------------
 
 SOLVING FOR HEAD 

 Outer-Iteration  Inner-Iteration  Backtracking  Number of        Incoming       Outgoing      Cutoff     Maximum Head Change      Maximum Head Change
     Number           Count           Flag       Backtracks       Residual       Residual      Residual            Value               Location
        1                             0             0          0.281480E-08     0.281480E-08   -1.00000    
        1                1                                                                                       0.818659E-06               8985           GWF-node number
     1 CALLS TO SPARSE MATRIX SOLVER PACKAGE  IN FLOW TIME STEP     345 STRESS PERIOD       1

 TOTAL OF       1OUTER ITERATIONS
  MAXIMUM CHANGE FOR EACH ITERATION:
   MAX. CHANGE        NODE  MAX. CHANGE        NODE  MAX. CHANGE        NODE  MAX. CHANGE        NODE  MAX. CHANGE        NODE
 ------------------------------------------------------------------------------------------------------------------------------------
   0.81866E-06,       8985
1
  VOLUMETRIC BUDGET FOR ENTIRE MODEL AT END OF TIME STEP     345 IN STRESS PERIOD       1
  ---------------------------------------------------------------------------------------

     CUMULATIVE VOLUMES      L**3       RATES FOR THIS TIME STEP      L**3/T
     ------------------                 ------------------------

           IN:                                      IN:
           ---                                      ---
             STORAGE =       1.5979E-03               STORAGE =       1.7047E-12
       CONSTANT HEAD =           0.0000         CONSTANT HEAD =           0.0000
              DRAINS =           0.0000                DRAINS =           0.0000
            RECHARGE =    47815136.7768              RECHARGE =         500.0000

            TOTAL IN =    47815136.7784              TOTAL IN =         500.0000

          OUT:                                     OUT:
          ----                                     ----
             STORAGE =         914.3413               STORAGE =       8.1487E-09
       CONSTANT HEAD =           0.0000         CONSTANT HEAD =           0.0000
              DRAINS =    47813432.8957                DRAINS =         499.9917
            RECHARGE =           0.0000              RECHARGE =           0.0000

           TOTAL OUT =    47814347.2370             TOTAL OUT =         499.9917

            IN - OUT =         789.5414              IN - OUT =       8.2558E-03

 PERCENT DISCREPANCY =           0.00     PERCENT DISCREPANCY =           0.00






          TIME SUMMARY AT END OF TIME STEP       345 IN STRESS PERIOD         1
                    SECONDS     MINUTES      HOURS       DAYS        YEARS
                    -----------------------------------------------------------
   TIME STEP LENGTH 3.15576E+10 5.25960E+08 8.76600E+06 3.65250E+05  1000.0    
 STRESS PERIOD TIME 3.01786E+12 5.02977E+10 8.38295E+08 3.49290E+07  95630.    
         TOTAL TIME 3.01786E+12 5.02977E+10 8.38295E+08 3.49290E+07  95630.    
1
 -------------------------------------------------------------------------------------
 
 SOLVING FOR HEAD 

 Outer-Iteration  Inner-Iteration  Backtracking  Number of        Incoming       Outgoing      Cutoff     Maximum Head Change      Maximum Head Change
     Number           Count           Flag       Backtracks       Residual       Residual      Residual            Value               Location
        1                             0             0          0.278986E-08     0.278986E-08   -1.00000    
        1                1                                                                                       0.899217E-06               8000           GWF-node number
     1 CALLS TO SPARSE MATRIX SOLVER PACKAGE  IN FLOW TIME STEP     346 STRESS PERIOD       1

 TOTAL OF       1OUTER ITERATIONS
  MAXIMUM CHANGE FOR EACH ITERATION:
   MAX. CHANGE        NODE  MAX. CHANGE        NODE  MAX. CHANGE        NODE  MAX. CHANGE        NODE  MAX. CHANGE        NODE
 ------------------------------------------------------------------------------------------------------------------------------------
   0.89922E-06,       8000
1
  VOLUMETRIC BUDGET FOR ENTIRE MODEL AT END OF TIME STEP     346 IN STRESS PERIOD       1
  ---------------------------------------------------------------------------------------

     CUMULATIVE VOLUMES      L**3       RATES FOR THIS TIME STEP      L**3/T
     ------------------                 ------------------------

           IN:                                      IN:
           ---                                      ---
             STORAGE =       1.5979E-03               STORAGE =       1.6418E-12
       CONSTANT HEAD =           0.0000         CONSTANT HEAD =           0.0000
              DRAINS =           0.0000                DRAINS =           0.0000
            RECHARGE =    48315136.7768              RECHARGE =         500.0000

            TOTAL IN =    48315136.7784              TOTAL IN =         500.0000

          OUT:                                     OUT:
          ----                                     ----
             STORAGE =         914.3413               STORAGE =       8.1480E-09
       CONSTANT HEAD =           0.0000         CONSTANT HEAD =           0.0000
              DRAINS =    48313424.6412                DRAINS =         499.9917
            RECHARGE =           0.0000              RECHARGE =           0.0000

           TOTAL OUT =    48314338.9826             TOTAL OUT =         499.9917

            IN - OUT =         797.7958              IN - OUT =       8.2544E-03

 PERCENT DISCREPANCY =           0.00     PERCENT DISCREPANCY =           0.00






          TIME SUMMARY AT END OF TIME STEP       346 IN STRESS PERIOD         1
                    SECONDS     MINUTES      HOURS       DAYS        YEARS
                    -----------------------------------------------------------
   TIME STEP LENGTH 3.15576E+10 5.25960E+08 8.76600E+06 3.65250E+05  1000.0    
 STRESS PERIOD TIME 3.04942E+12 5.08237E+10 8.47061E+08 3.52942E+07  96630.    
         TOTAL TIME 3.04942E+12 5.08237E+10 8.47061E+08 3.52942E+07  96630.    
1
 -------------------------------------------------------------------------------------
 
 SOLVING FOR HEAD 

 Outer-Iteration  Inner-Iteration  Backtracking  Number of        Incoming       Outgoing      Cutoff     Maximum Head Change      Maximum Head Change
     Number           Count           Flag       Backtracks       Residual       Residual      Residual            Value               Location
        1                             0             0          0.280536E-08     0.280536E-08   -1.00000    
        1                1                                                                                       0.813878E-06               8985           GWF-node number
     1 CALLS TO SPARSE MATRIX SOLVER PACKAGE  IN FLOW TIME STEP     347 STRESS PERIOD       1

 TOTAL OF       1OUTER ITERATIONS
  MAXIMUM CHANGE FOR EACH ITERATION:
   MAX. CHANGE        NODE  MAX. CHANGE        NODE  MAX. CHANGE        NODE  MAX. CHANGE        NODE  MAX. CHANGE        NODE
 ------------------------------------------------------------------------------------------------------------------------------------
   0.81388E-06,       8985
1
  VOLUMETRIC BUDGET FOR ENTIRE MODEL AT END OF TIME STEP     347 IN STRESS PERIOD       1
  ---------------------------------------------------------------------------------------

     CUMULATIVE VOLUMES      L**3       RATES FOR THIS TIME STEP      L**3/T
     ------------------                 ------------------------

           IN:                                      IN:
           ---                                      ---
             STORAGE =       1.5979E-03               STORAGE =       1.5359E-12
       CONSTANT HEAD =           0.0000         CONSTANT HEAD =           0.0000
              DRAINS =           0.0000                DRAINS =           0.0000
            RECHARGE =    48815136.7768              RECHARGE =         500.0000

            TOTAL IN =    48815136.7784              TOTAL IN =         500.0000

          OUT:                                     OUT:
          ----                                     ----
             STORAGE =         914.3413               STORAGE =       8.1330E-09
       CONSTANT HEAD =           0.0000         CONSTANT HEAD =           0.0000
              DRAINS =    48813416.3882                DRAINS =         499.9917
            RECHARGE =           0.0000              RECHARGE =           0.0000

           TOTAL OUT =    48814330.7295             TOTAL OUT =         499.9917

            IN - OUT =         806.0488              IN - OUT =       8.2530E-03

 PERCENT DISCREPANCY =           0.00     PERCENT DISCREPANCY =           0.00






          TIME SUMMARY AT END OF TIME STEP       347 IN STRESS PERIOD         1
                    SECONDS     MINUTES      HOURS       DAYS        YEARS
                    -----------------------------------------------------------
   TIME STEP LENGTH 3.15576E+10 5.25960E+08 8.76600E+06 3.65250E+05  1000.0    
 STRESS PERIOD TIME 3.08098E+12 5.13496E+10 8.55827E+08 3.56595E+07  97630.    
         TOTAL TIME 3.08098E+12 5.13496E+10 8.55827E+08 3.56595E+07  97630.    
1
 -------------------------------------------------------------------------------------
 
 SOLVING FOR HEAD 

 Outer-Iteration  Inner-Iteration  Backtracking  Number of        Incoming       Outgoing      Cutoff     Maximum Head Change      Maximum Head Change
     Number           Count           Flag       Backtracks       Residual       Residual      Residual            Value               Location
        1                             0             0          0.278045E-08     0.278045E-08   -1.00000    
        1                1                                                                                       0.894119E-06               8000           GWF-node number
     1 CALLS TO SPARSE MATRIX SOLVER PACKAGE  IN FLOW TIME STEP     348 STRESS PERIOD       1

 TOTAL OF       1OUTER ITERATIONS
  MAXIMUM CHANGE FOR EACH ITERATION:
   MAX. CHANGE        NODE  MAX. CHANGE        NODE  MAX. CHANGE        NODE  MAX. CHANGE        NODE  MAX. CHANGE        NODE
 ------------------------------------------------------------------------------------------------------------------------------------
   0.89412E-06,       8000
1
  VOLUMETRIC BUDGET FOR ENTIRE MODEL AT END OF TIME STEP     348 IN STRESS PERIOD       1
  ---------------------------------------------------------------------------------------

     CUMULATIVE VOLUMES      L**3       RATES FOR THIS TIME STEP      L**3/T
     ------------------                 ------------------------

           IN:                                      IN:
           ---                                      ---
             STORAGE =       1.5979E-03               STORAGE =       1.4757E-12
       CONSTANT HEAD =           0.0000         CONSTANT HEAD =           0.0000
              DRAINS =           0.0000                DRAINS =           0.0000
            RECHARGE =    49315136.7768              RECHARGE =         500.0000

            TOTAL IN =    49315136.7784              TOTAL IN =         500.0000

          OUT:                                     OUT:
          ----                                     ----
             STORAGE =         914.3413               STORAGE =       8.1324E-09
       CONSTANT HEAD =           0.0000         CONSTANT HEAD =           0.0000
              DRAINS =    49313408.1366                DRAINS =         499.9917
            RECHARGE =           0.0000              RECHARGE =           0.0000

           TOTAL OUT =    49314322.4779             TOTAL OUT =         499.9917

            IN - OUT =         814.3005              IN - OUT =       8.2516E-03

 PERCENT DISCREPANCY =           0.00     PERCENT DISCREPANCY =           0.00






          TIME SUMMARY AT END OF TIME STEP       348 IN STRESS PERIOD         1
                    SECONDS     MINUTES      HOURS       DAYS        YEARS
                    -----------------------------------------------------------
   TIME STEP LENGTH 3.15576E+10 5.25960E+08 8.76600E+06 3.65250E+05  1000.0    
 STRESS PERIOD TIME 3.11253E+12 5.18756E+10 8.64593E+08 3.60247E+07  98630.    
         TOTAL TIME 3.11253E+12 5.18756E+10 8.64593E+08 3.60247E+07  98630.    
1
 -------------------------------------------------------------------------------------
 
 SOLVING FOR HEAD 

 Outer-Iteration  Inner-Iteration  Backtracking  Number of        Incoming       Outgoing      Cutoff     Maximum Head Change      Maximum Head Change
     Number           Count           Flag       Backtracks       Residual       Residual      Residual            Value               Location
        1                             0             0          0.279614E-08     0.279614E-08   -1.00000    
        1                1                                                                                       0.809201E-06               8985           GWF-node number
     1 CALLS TO SPARSE MATRIX SOLVER PACKAGE  IN FLOW TIME STEP     349 STRESS PERIOD       1

 TOTAL OF       1OUTER ITERATIONS
  MAXIMUM CHANGE FOR EACH ITERATION:
   MAX. CHANGE        NODE  MAX. CHANGE        NODE  MAX. CHANGE        NODE  MAX. CHANGE        NODE  MAX. CHANGE        NODE
 ------------------------------------------------------------------------------------------------------------------------------------
   0.80920E-06,       8985
1
  VOLUMETRIC BUDGET FOR ENTIRE MODEL AT END OF TIME STEP     349 IN STRESS PERIOD       1
  ---------------------------------------------------------------------------------------

     CUMULATIVE VOLUMES      L**3       RATES FOR THIS TIME STEP      L**3/T
     ------------------                 ------------------------

           IN:                                      IN:
           ---                                      ---
             STORAGE =       1.5979E-03               STORAGE =       1.3767E-12
       CONSTANT HEAD =           0.0000         CONSTANT HEAD =           0.0000
              DRAINS =           0.0000                DRAINS =           0.0000
            RECHARGE =    49815136.7768              RECHARGE =         500.0000

            TOTAL IN =    49815136.7784              TOTAL IN =         500.0000

          OUT:                                     OUT:
          ----                                     ----
             STORAGE =         914.3413               STORAGE =       8.1175E-09
       CONSTANT HEAD =           0.0000         CONSTANT HEAD =           0.0000
              DRAINS =    49813399.8864                DRAINS =         499.9917
            RECHARGE =           0.0000              RECHARGE =           0.0000

           TOTAL OUT =    49814314.2277             TOTAL OUT =         499.9917

            IN - OUT =         822.5507              IN - OUT =       8.2502E-03

 PERCENT DISCREPANCY =           0.00     PERCENT DISCREPANCY =           0.00






          TIME SUMMARY AT END OF TIME STEP       349 IN STRESS PERIOD         1
                    SECONDS     MINUTES      HOURS       DAYS        YEARS
                    -----------------------------------------------------------
   TIME STEP LENGTH 3.15576E+10 5.25960E+08 8.76600E+06 3.65250E+05  1000.0    
 STRESS PERIOD TIME 3.14409E+12 5.24015E+10 8.73359E+08 3.63900E+07  99630.    
         TOTAL TIME 3.14409E+12 5.24015E+10 8.73359E+08 3.63900E+07  99630.    
1
 -------------------------------------------------------------------------------------
 
 SOLVING FOR HEAD 

 Outer-Iteration  Inner-Iteration  Backtracking  Number of        Incoming       Outgoing      Cutoff     Maximum Head Change      Maximum Head Change
     Number           Count           Flag       Backtracks       Residual       Residual      Residual            Value               Location
        1                             0             0          0.277124E-08     0.277124E-08   -1.00000    
        1                1                                                                                       0.889121E-06               8000           GWF-node number
     1 CALLS TO SPARSE MATRIX SOLVER PACKAGE  IN FLOW TIME STEP     350 STRESS PERIOD       1

 TOTAL OF       1OUTER ITERATIONS
  MAXIMUM CHANGE FOR EACH ITERATION:
   MAX. CHANGE        NODE  MAX. CHANGE        NODE  MAX. CHANGE        NODE  MAX. CHANGE        NODE  MAX. CHANGE        NODE
 ------------------------------------------------------------------------------------------------------------------------------------
   0.88912E-06,       8000
 UBUDSVU SAVING "         STORAGE" ON UNIT  50 AT TIME STEP    350, STRESS PERIOD      1
 UBUDSVU SAVING "   CONSTANT HEAD" ON UNIT  50 AT TIME STEP    350, STRESS PERIOD      1
 UBUDSVU SAVING "   FLOW JA FACE " ON UNIT  50 AT TIME STEP    350, STRESS PERIOD      1
 UBUDSVU SAVING "          DRAINS" ON UNIT  50 AT TIME STEP    350, STRESS PERIOD      1
 UBUDSVU SAVING "        RECHARGE" ON UNIT  50 AT TIME STEP    350, STRESS PERIOD      1

 HEAD WILL BE SAVED ON UNIT       30 AT END OF TIME STEP      350, STRESS PERIOD        1

 DRAWDOWN WILL BE SAVED ON UNIT   31 AT END OF TIME STEP 350, STRESS PERIOD    1
1
  VOLUMETRIC BUDGET FOR ENTIRE MODEL AT END OF TIME STEP     350 IN STRESS PERIOD       1
  ---------------------------------------------------------------------------------------

     CUMULATIVE VOLUMES      L**3       RATES FOR THIS TIME STEP      L**3/T
     ------------------                 ------------------------

           IN:                                      IN:
           ---                                      ---
             STORAGE =       1.5979E-03               STORAGE =       3.5668E-12
       CONSTANT HEAD =           0.0000         CONSTANT HEAD =           0.0000
              DRAINS =           0.0000                DRAINS =           0.0000
            RECHARGE =    50000000.0000              RECHARGE =         500.0000

            TOTAL IN =    50000000.0016              TOTAL IN =         500.0000

          OUT:                                     OUT:
          ----                                     ----
             STORAGE =         914.3414               STORAGE =       2.1954E-08
       CONSTANT HEAD =           0.0000         CONSTANT HEAD =           0.0000
              DRAINS =    49998260.0598                DRAINS =         499.9918
            RECHARGE =           0.0000              RECHARGE =           0.0000

           TOTAL OUT =    49999174.4011             TOTAL OUT =         499.9918

            IN - OUT =         825.6005              IN - OUT =       8.2487E-03

 PERCENT DISCREPANCY =           0.00     PERCENT DISCREPANCY =           0.00






          TIME SUMMARY AT END OF TIME STEP       350 IN STRESS PERIOD         1
                    SECONDS     MINUTES      HOURS       DAYS        YEARS
                    -----------------------------------------------------------
   TIME STEP LENGTH 1.16677E+10 1.94461E+08 3.24102E+06 1.35043E+05  369.73    
 STRESS PERIOD TIME 3.15576E+12 5.25960E+10 8.76600E+08 3.65250E+07 1.00000E+05
         TOTAL TIME 3.15576E+12 5.25960E+10 8.76600E+08 3.65250E+07 1.00000E+05
1

 Run end date and time (yyyy/mm/dd hh:mm:ss): 2023/12/20  0:43:28
 Elapsed run time:  2 Minutes, 54.066 Seconds

