                                  USG-TRANSPORT USG-TRANSPORT 
       FURTHER  DEVELOPMENTS BASED ON MODFLOW-USG
                      VERSION USG-TRANSPORT VERSION 2.02.0

 LIST FILE: hillslope.lst
                         UNIT    7

 OPENING hillslope.bas
 FILE TYPE:BAS6   UNIT    1   STATUS:OLD    
 FORMAT:FORMATTED              ACCESS:SEQUENTIAL          

 OPENING hillslope.sms
 FILE TYPE:SMS   UNIT   19   STATUS:OLD    
 FORMAT:FORMATTED              ACCESS:SEQUENTIAL          

 OPENING hillslope.dis
 FILE TYPE:DISU   UNIT   29   STATUS:OLD    
 FORMAT:FORMATTED              ACCESS:SEQUENTIAL          

 OPENING hillslope.oc
 FILE TYPE:OC   UNIT   22   STATUS:OLD    
 FORMAT:FORMATTED              ACCESS:SEQUENTIAL          

 OPENING hillslope.rch
 FILE TYPE:RCH   UNIT   18   STATUS:OLD    
 FORMAT:FORMATTED              ACCESS:SEQUENTIAL          

 OPENING hillslope.drn
 FILE TYPE:DRN   UNIT   13   STATUS:OLD    
 FORMAT:FORMATTED              ACCESS:SEQUENTIAL          

 OPENING hillslope_brooks.lpf
 FILE TYPE:LPF   UNIT   11   STATUS:OLD    
 FORMAT:FORMATTED              ACCESS:SEQUENTIAL          

 OPENING hillslope_FlowReduction.dat
 FILE TYPE:DATA   UNIT  166   STATUS:UNKNOWN
 FORMAT:FORMATTED              ACCESS:SEQUENTIAL          

 OPENING hillslope.gwf.cbb
 FILE TYPE:DATA(BINARY)   UNIT   50   STATUS:UNKNOWN
 FORMAT:UNFORMATTED            ACCESS:STREAM              

 OPENING hillslope.gwf.hds
 FILE TYPE:DATA(BINARY)   UNIT   30   STATUS:UNKNOWN
 FORMAT:UNFORMATTED            ACCESS:STREAM              

 OPENING hillslope.gwf.ddn
 FILE TYPE:DATA(BINARY)   UNIT   31   STATUS:UNKNOWN
 FORMAT:UNFORMATTED            ACCESS:STREAM              

 BAS -- BASIC PACKAGEUSG-TRANSPORT USG-TRANSPORT VERSION 2.02.0             INPUT READ FROM UNIT    1
 
 # MODFLOW-USGs Basic Package                                                    
 # MODFLOW Data Set Created by Groundwater Vistas                                
 #
 THE FREE FORMAT OPTION HAS BEEN SELECTED
 RICHARDS EQUATION SOLUTION
 THE UNSTRUCTURED GRID OPTION HAS BEEN SELECTED

 DIS -- UNSTRUCTURED GRID DISCRETIZATION PACKAGE, VERSION 1 : 5/17/2010 - INPUT READ FROM UNIT   29
      50000 NODES        50 NLAY    247900 NJAG  VERT. SUBDISCRETIZATION INDEX, IVSD = -1
 INDEX FOR INPUT OF UNSTRUCTURED, FINITE-VOLUME CONNECTIVITY INFORMATION, IDSYMRD =   0
    1 STRESS PERIOD(S) IN SIMULATION
 MODEL TIME UNIT IS YEARS
 MODEL LENGTH UNIT IS METERS
  Confining bed flag for each layer:
   0   0   0   0   0   0   0   0   0   0   0   0   0   0   0   0   0   0   0   0
   0   0   0   0   0   0   0   0   0   0   0   0   0   0   0   0   0   0   0   0
   0   0   0   0   0   0   0   0   0   0

 DIS -- UNSTRUCTURED GRID DISCRETIZATION PACKAGE, VERSION 1 : 5/17/2010 - INPUT READ FROM UNIT   29

   NO. OF NODES PER LAYER =      1000



                                TOP FOR LAYER   1
 READING ON UNIT   29 WITH FORMAT: (FREE)              



                                TOP FOR LAYER   2
 READING ON UNIT   29 WITH FORMAT: (FREE)              



                                TOP FOR LAYER   3
 READING ON UNIT   29 WITH FORMAT: (FREE)              



                                TOP FOR LAYER   4
 READING ON UNIT   29 WITH FORMAT: (FREE)              



                                TOP FOR LAYER   5
 READING ON UNIT   29 WITH FORMAT: (FREE)              



                                TOP FOR LAYER   6
 READING ON UNIT   29 WITH FORMAT: (FREE)              



                                TOP FOR LAYER   7
 READING ON UNIT   29 WITH FORMAT: (FREE)              



                                TOP FOR LAYER   8
 READING ON UNIT   29 WITH FORMAT: (FREE)              



                                TOP FOR LAYER   9
 READING ON UNIT   29 WITH FORMAT: (FREE)              



                                TOP FOR LAYER  10
 READING ON UNIT   29 WITH FORMAT: (FREE)              



                                TOP FOR LAYER  11
 READING ON UNIT   29 WITH FORMAT: (FREE)              



                                TOP FOR LAYER  12
 READING ON UNIT   29 WITH FORMAT: (FREE)              



                                TOP FOR LAYER  13
 READING ON UNIT   29 WITH FORMAT: (FREE)              



                                TOP FOR LAYER  14
 READING ON UNIT   29 WITH FORMAT: (FREE)              



                                TOP FOR LAYER  15
 READING ON UNIT   29 WITH FORMAT: (FREE)              



                                TOP FOR LAYER  16
 READING ON UNIT   29 WITH FORMAT: (FREE)              



                                TOP FOR LAYER  17
 READING ON UNIT   29 WITH FORMAT: (FREE)              



                                TOP FOR LAYER  18
 READING ON UNIT   29 WITH FORMAT: (FREE)              



                                TOP FOR LAYER  19
 READING ON UNIT   29 WITH FORMAT: (FREE)              



                                TOP FOR LAYER  20
 READING ON UNIT   29 WITH FORMAT: (FREE)              



                                TOP FOR LAYER  21
 READING ON UNIT   29 WITH FORMAT: (FREE)              



                                TOP FOR LAYER  22
 READING ON UNIT   29 WITH FORMAT: (FREE)              



                                TOP FOR LAYER  23
 READING ON UNIT   29 WITH FORMAT: (FREE)              



                                TOP FOR LAYER  24
 READING ON UNIT   29 WITH FORMAT: (FREE)              



                                TOP FOR LAYER  25
 READING ON UNIT   29 WITH FORMAT: (FREE)              



                                TOP FOR LAYER  26
 READING ON UNIT   29 WITH FORMAT: (FREE)              



                                TOP FOR LAYER  27
 READING ON UNIT   29 WITH FORMAT: (FREE)              



                                TOP FOR LAYER  28
 READING ON UNIT   29 WITH FORMAT: (FREE)              



                                TOP FOR LAYER  29
 READING ON UNIT   29 WITH FORMAT: (FREE)              



                                TOP FOR LAYER  30
 READING ON UNIT   29 WITH FORMAT: (FREE)              



                                TOP FOR LAYER  31
 READING ON UNIT   29 WITH FORMAT: (FREE)              



                                TOP FOR LAYER  32
 READING ON UNIT   29 WITH FORMAT: (FREE)              



                                TOP FOR LAYER  33
 READING ON UNIT   29 WITH FORMAT: (FREE)              



                                TOP FOR LAYER  34
 READING ON UNIT   29 WITH FORMAT: (FREE)              



                                TOP FOR LAYER  35
 READING ON UNIT   29 WITH FORMAT: (FREE)              



                                TOP FOR LAYER  36
 READING ON UNIT   29 WITH FORMAT: (FREE)              



                                TOP FOR LAYER  37
 READING ON UNIT   29 WITH FORMAT: (FREE)              



                                TOP FOR LAYER  38
 READING ON UNIT   29 WITH FORMAT: (FREE)              



                                TOP FOR LAYER  39
 READING ON UNIT   29 WITH FORMAT: (FREE)              



                                TOP FOR LAYER  40
 READING ON UNIT   29 WITH FORMAT: (FREE)              



                                TOP FOR LAYER  41
 READING ON UNIT   29 WITH FORMAT: (FREE)              



                                TOP FOR LAYER  42
 READING ON UNIT   29 WITH FORMAT: (FREE)              



                                TOP FOR LAYER  43
 READING ON UNIT   29 WITH FORMAT: (FREE)              



                                TOP FOR LAYER  44
 READING ON UNIT   29 WITH FORMAT: (FREE)              



                                TOP FOR LAYER  45
 READING ON UNIT   29 WITH FORMAT: (FREE)              



                                TOP FOR LAYER  46
 READING ON UNIT   29 WITH FORMAT: (FREE)              



                                TOP FOR LAYER  47
 READING ON UNIT   29 WITH FORMAT: (FREE)              



                                TOP FOR LAYER  48
 READING ON UNIT   29 WITH FORMAT: (FREE)              



                                TOP FOR LAYER  49
 READING ON UNIT   29 WITH FORMAT: (FREE)              



                                TOP FOR LAYER  50
 READING ON UNIT   29 WITH FORMAT: (FREE)              



                                BOT FOR LAYER   1
 READING ON UNIT   29 WITH FORMAT: (FREE)              



                                BOT FOR LAYER   2
 READING ON UNIT   29 WITH FORMAT: (FREE)              



                                BOT FOR LAYER   3
 READING ON UNIT   29 WITH FORMAT: (FREE)              



                                BOT FOR LAYER   4
 READING ON UNIT   29 WITH FORMAT: (FREE)              



                                BOT FOR LAYER   5
 READING ON UNIT   29 WITH FORMAT: (FREE)              



                                BOT FOR LAYER   6
 READING ON UNIT   29 WITH FORMAT: (FREE)              



                                BOT FOR LAYER   7
 READING ON UNIT   29 WITH FORMAT: (FREE)              



                                BOT FOR LAYER   8
 READING ON UNIT   29 WITH FORMAT: (FREE)              



                                BOT FOR LAYER   9
 READING ON UNIT   29 WITH FORMAT: (FREE)              



                                BOT FOR LAYER  10
 READING ON UNIT   29 WITH FORMAT: (FREE)              



                                BOT FOR LAYER  11
 READING ON UNIT   29 WITH FORMAT: (FREE)              



                                BOT FOR LAYER  12
 READING ON UNIT   29 WITH FORMAT: (FREE)              



                                BOT FOR LAYER  13
 READING ON UNIT   29 WITH FORMAT: (FREE)              



                                BOT FOR LAYER  14
 READING ON UNIT   29 WITH FORMAT: (FREE)              



                                BOT FOR LAYER  15
 READING ON UNIT   29 WITH FORMAT: (FREE)              



                                BOT FOR LAYER  16
 READING ON UNIT   29 WITH FORMAT: (FREE)              



                                BOT FOR LAYER  17
 READING ON UNIT   29 WITH FORMAT: (FREE)              



                                BOT FOR LAYER  18
 READING ON UNIT   29 WITH FORMAT: (FREE)              



                                BOT FOR LAYER  19
 READING ON UNIT   29 WITH FORMAT: (FREE)              



                                BOT FOR LAYER  20
 READING ON UNIT   29 WITH FORMAT: (FREE)              



                                BOT FOR LAYER  21
 READING ON UNIT   29 WITH FORMAT: (FREE)              



                                BOT FOR LAYER  22
 READING ON UNIT   29 WITH FORMAT: (FREE)              



                                BOT FOR LAYER  23
 READING ON UNIT   29 WITH FORMAT: (FREE)              



                                BOT FOR LAYER  24
 READING ON UNIT   29 WITH FORMAT: (FREE)              



                                BOT FOR LAYER  25
 READING ON UNIT   29 WITH FORMAT: (FREE)              



                                BOT FOR LAYER  26
 READING ON UNIT   29 WITH FORMAT: (FREE)              



                                BOT FOR LAYER  27
 READING ON UNIT   29 WITH FORMAT: (FREE)              



                                BOT FOR LAYER  28
 READING ON UNIT   29 WITH FORMAT: (FREE)              



                                BOT FOR LAYER  29
 READING ON UNIT   29 WITH FORMAT: (FREE)              



                                BOT FOR LAYER  30
 READING ON UNIT   29 WITH FORMAT: (FREE)              



                                BOT FOR LAYER  31
 READING ON UNIT   29 WITH FORMAT: (FREE)              



                                BOT FOR LAYER  32
 READING ON UNIT   29 WITH FORMAT: (FREE)              



                                BOT FOR LAYER  33
 READING ON UNIT   29 WITH FORMAT: (FREE)              



                                BOT FOR LAYER  34
 READING ON UNIT   29 WITH FORMAT: (FREE)              



                                BOT FOR LAYER  35
 READING ON UNIT   29 WITH FORMAT: (FREE)              



                                BOT FOR LAYER  36
 READING ON UNIT   29 WITH FORMAT: (FREE)              



                                BOT FOR LAYER  37
 READING ON UNIT   29 WITH FORMAT: (FREE)              



                                BOT FOR LAYER  38
 READING ON UNIT   29 WITH FORMAT: (FREE)              



                                BOT FOR LAYER  39
 READING ON UNIT   29 WITH FORMAT: (FREE)              



                                BOT FOR LAYER  40
 READING ON UNIT   29 WITH FORMAT: (FREE)              



                                BOT FOR LAYER  41
 READING ON UNIT   29 WITH FORMAT: (FREE)              



                                BOT FOR LAYER  42
 READING ON UNIT   29 WITH FORMAT: (FREE)              



                                BOT FOR LAYER  43
 READING ON UNIT   29 WITH FORMAT: (FREE)              



                                BOT FOR LAYER  44
 READING ON UNIT   29 WITH FORMAT: (FREE)              



                                BOT FOR LAYER  45
 READING ON UNIT   29 WITH FORMAT: (FREE)              



                                BOT FOR LAYER  46
 READING ON UNIT   29 WITH FORMAT: (FREE)              



                                BOT FOR LAYER  47
 READING ON UNIT   29 WITH FORMAT: (FREE)              



                                BOT FOR LAYER  48
 READING ON UNIT   29 WITH FORMAT: (FREE)              



                                BOT FOR LAYER  49
 READING ON UNIT   29 WITH FORMAT: (FREE)              



                                BOT FOR LAYER  50
 READING ON UNIT   29 WITH FORMAT: (FREE)              

                     AREA =   1.00000     FOR LAYER   1



                                 IA
 READING ON UNIT   29 WITH FORMAT: (FREE)              



                                 JA
 READING ON UNIT   29 WITH FORMAT: (FREE)              



               CONNECTION LENGTH 12 FOR LAYER   1
 READING ON UNIT   29 WITH FORMAT: (FREE)              



                 PERPENDICULAR AREA
 READING ON UNIT   29 WITH FORMAT: (FREE)              


 STRESS PERIOD     LENGTH       TIME STEPS     MULTIPLIER FOR DELT    SS FLAG
 ----------------------------------------------------------------------------
        1         100000.0          1                    1.500         TR

 TRANSIENT SIMULATION




           BOUNDARY ARRAY =         1 FOR LAYER   1

           BOUNDARY ARRAY =         1 FOR LAYER   2

           BOUNDARY ARRAY =         1 FOR LAYER   3

           BOUNDARY ARRAY =         1 FOR LAYER   4

           BOUNDARY ARRAY =         1 FOR LAYER   5

           BOUNDARY ARRAY =         1 FOR LAYER   6

           BOUNDARY ARRAY =         1 FOR LAYER   7

           BOUNDARY ARRAY =         1 FOR LAYER   8

           BOUNDARY ARRAY =         1 FOR LAYER   9

           BOUNDARY ARRAY =         1 FOR LAYER  10

           BOUNDARY ARRAY =         1 FOR LAYER  11

           BOUNDARY ARRAY =         1 FOR LAYER  12

           BOUNDARY ARRAY =         1 FOR LAYER  13

           BOUNDARY ARRAY =         1 FOR LAYER  14

           BOUNDARY ARRAY =         1 FOR LAYER  15

           BOUNDARY ARRAY =         1 FOR LAYER  16

           BOUNDARY ARRAY =         1 FOR LAYER  17

           BOUNDARY ARRAY =         1 FOR LAYER  18

           BOUNDARY ARRAY =         1 FOR LAYER  19

           BOUNDARY ARRAY =         1 FOR LAYER  20

           BOUNDARY ARRAY =         1 FOR LAYER  21

           BOUNDARY ARRAY =         1 FOR LAYER  22

           BOUNDARY ARRAY =         1 FOR LAYER  23

           BOUNDARY ARRAY =         1 FOR LAYER  24

           BOUNDARY ARRAY =         1 FOR LAYER  25

           BOUNDARY ARRAY =         1 FOR LAYER  26

           BOUNDARY ARRAY =         1 FOR LAYER  27

           BOUNDARY ARRAY =         1 FOR LAYER  28

           BOUNDARY ARRAY =         1 FOR LAYER  29

           BOUNDARY ARRAY =         1 FOR LAYER  30

           BOUNDARY ARRAY =         1 FOR LAYER  31

           BOUNDARY ARRAY =         1 FOR LAYER  32

           BOUNDARY ARRAY =         1 FOR LAYER  33

           BOUNDARY ARRAY =         1 FOR LAYER  34

           BOUNDARY ARRAY =         1 FOR LAYER  35

           BOUNDARY ARRAY =         1 FOR LAYER  36

           BOUNDARY ARRAY =         1 FOR LAYER  37

           BOUNDARY ARRAY =         1 FOR LAYER  38

           BOUNDARY ARRAY =         1 FOR LAYER  39

           BOUNDARY ARRAY =         1 FOR LAYER  40

           BOUNDARY ARRAY =         1 FOR LAYER  41

           BOUNDARY ARRAY =         1 FOR LAYER  42

           BOUNDARY ARRAY =         1 FOR LAYER  43

           BOUNDARY ARRAY =         1 FOR LAYER  44

           BOUNDARY ARRAY =         1 FOR LAYER  45

           BOUNDARY ARRAY =         1 FOR LAYER  46

           BOUNDARY ARRAY =         1 FOR LAYER  47

           BOUNDARY ARRAY =         1 FOR LAYER  48

           BOUNDARY ARRAY =         1 FOR LAYER  49



                     BOUNDARY ARRAY FOR LAYER  50
 READING ON UNIT    1 WITH FORMAT: (FREE)              

 AQUIFER HEAD WILL BE SET TO   999.00     AT ALL NO-FLOW NODES (IBOUND=0).

             INITIAL HEAD =   0.00000     FOR LAYER   1

             INITIAL HEAD =   0.00000     FOR LAYER   2

             INITIAL HEAD =   0.00000     FOR LAYER   3

             INITIAL HEAD =   0.00000     FOR LAYER   4

             INITIAL HEAD =   0.00000     FOR LAYER   5

             INITIAL HEAD =   0.00000     FOR LAYER   6

             INITIAL HEAD =   0.00000     FOR LAYER   7

             INITIAL HEAD =   0.00000     FOR LAYER   8

             INITIAL HEAD =   0.00000     FOR LAYER   9

             INITIAL HEAD =   0.00000     FOR LAYER  10

             INITIAL HEAD =   0.00000     FOR LAYER  11

             INITIAL HEAD =   0.00000     FOR LAYER  12

             INITIAL HEAD =   0.00000     FOR LAYER  13

             INITIAL HEAD =   0.00000     FOR LAYER  14

             INITIAL HEAD =   0.00000     FOR LAYER  15

             INITIAL HEAD =   0.00000     FOR LAYER  16

             INITIAL HEAD =   0.00000     FOR LAYER  17

             INITIAL HEAD =   0.00000     FOR LAYER  18

             INITIAL HEAD =   0.00000     FOR LAYER  19

             INITIAL HEAD =   0.00000     FOR LAYER  20

             INITIAL HEAD =   0.00000     FOR LAYER  21

             INITIAL HEAD =   0.00000     FOR LAYER  22

             INITIAL HEAD =   0.00000     FOR LAYER  23

             INITIAL HEAD =   0.00000     FOR LAYER  24

             INITIAL HEAD =   0.00000     FOR LAYER  25

             INITIAL HEAD =   0.00000     FOR LAYER  26

             INITIAL HEAD =   0.00000     FOR LAYER  27

             INITIAL HEAD =   0.00000     FOR LAYER  28

             INITIAL HEAD =   0.00000     FOR LAYER  29

             INITIAL HEAD =   0.00000     FOR LAYER  30

             INITIAL HEAD =   0.00000     FOR LAYER  31

             INITIAL HEAD =   0.00000     FOR LAYER  32

             INITIAL HEAD =   0.00000     FOR LAYER  33

             INITIAL HEAD =   0.00000     FOR LAYER  34

             INITIAL HEAD =   0.00000     FOR LAYER  35

             INITIAL HEAD =   0.00000     FOR LAYER  36

             INITIAL HEAD =   0.00000     FOR LAYER  37

             INITIAL HEAD =   0.00000     FOR LAYER  38

             INITIAL HEAD =   0.00000     FOR LAYER  39

             INITIAL HEAD =   0.00000     FOR LAYER  40

             INITIAL HEAD =   0.00000     FOR LAYER  41

             INITIAL HEAD =   0.00000     FOR LAYER  42

             INITIAL HEAD =   0.00000     FOR LAYER  43

             INITIAL HEAD =   0.00000     FOR LAYER  44

             INITIAL HEAD =   0.00000     FOR LAYER  45

             INITIAL HEAD =   0.00000     FOR LAYER  46

             INITIAL HEAD =   0.00000     FOR LAYER  47

             INITIAL HEAD =   0.00000     FOR LAYER  48

             INITIAL HEAD =   0.00000     FOR LAYER  49

             INITIAL HEAD =   0.00000     FOR LAYER  50

 ADAPTIVE TIME STEPPING PERFORMED. ATS VARIABLES WILL BE READ.
 -------------------------------------------------------------

          OUTPUT WILL BE PRINTED AT FOLLOWING       3 TIMES
          --------------------------------------------------
   1000.000       10000.00       100000.0    

 OUTPUT CONTROL IS SPECIFIED ONLY AT TIME STEPS FOR WHICH OUTPUT IS DESIRED
 HEAD PRINT FORMAT CODE IS   0    DRAWDOWN PRINT FORMAT CODE IS   0
 HEADS WILL BE SAVED ON UNIT   30    DRAWDOWNS WILL BE SAVED ON UNIT   31

 LPF -- LAYER-PROPERTY FLOW PACKAGE, VERSION 7, 5/2/2005
         INPUT READ FROM UNIT   11
 # MODFLOW-USG Layer Property Flow (LPF) Package
 CELL-BY-CELL FLOWS WILL BE SAVED ON UNIT   50
 HEAD AT CELLS THAT CONVERT TO DRY= -1.00000E+30
 No named parameters
 IKCFLAG=0, NODAL INPUT OF HY AND CV
 CONSTANTCV OPTION:
 Constant vertical conductance for convertible layers
 NOVFC OPTION:
 Do not apply the vertical flow correction

   LAYER FLAGS:
 LAYER       LAYTYP        LAYAVG         CHANI        LAYVKA        LAYWET
 ---------------------------------------------------------------------------
    1             4             0     1.000E+00             0             0
    2             4             0     1.000E+00             0             0
    3             4             0     1.000E+00             0             0
    4             4             0     1.000E+00             0             0
    5             4             0     1.000E+00             0             0
    6             4             0     1.000E+00             0             0
    7             4             0     1.000E+00             0             0
    8             4             0     1.000E+00             0             0
    9             4             0     1.000E+00             0             0
   10             4             0     1.000E+00             0             0
   11             4             0     1.000E+00             0             0
   12             4             0     1.000E+00             0             0
   13             4             0     1.000E+00             0             0
   14             4             0     1.000E+00             0             0
   15             4             0     1.000E+00             0             0
   16             4             0     1.000E+00             0             0
   17             4             0     1.000E+00             0             0
   18             4             0     1.000E+00             0             0
   19             4             0     1.000E+00             0             0
   20             4             0     1.000E+00             0             0
   21             4             0     1.000E+00             0             0
   22             4             0     1.000E+00             0             0
   23             4             0     1.000E+00             0             0
   24             4             0     1.000E+00             0             0
   25             4             0     1.000E+00             0             0
   26             4             0     1.000E+00             0             0
   27             4             0     1.000E+00             0             0
   28             4             0     1.000E+00             0             0
   29             4             0     1.000E+00             0             0
   30             4             0     1.000E+00             0             0
   31             4             0     1.000E+00             0             0
   32             4             0     1.000E+00             0             0
   33             4             0     1.000E+00             0             0
   34             4             0     1.000E+00             0             0
   35             4             0     1.000E+00             0             0
   36             4             0     1.000E+00             0             0
   37             4             0     1.000E+00             0             0
   38             4             0     1.000E+00             0             0
   39             4             0     1.000E+00             0             0
   40             4             0     1.000E+00             0             0
   41             4             0     1.000E+00             0             0
   42             4             0     1.000E+00             0             0
   43             4             0     1.000E+00             0             0
   44             4             0     1.000E+00             0             0
   45             4             0     1.000E+00             0             0
   46             4             0     1.000E+00             0             0
   47             4             0     1.000E+00             0             0
   48             4             0     1.000E+00             0             0
   49             4             0     1.000E+00             0             0
   50             4             0     1.000E+00             0             0

   INTERPRETATION OF LAYER FLAGS:
                        INTERBLOCK     HORIZONTAL    DATA IN
         LAYER TYPE   TRANSMISSIVITY   ANISOTROPY   ARRAY VKA   WETTABILITY
 LAYER      (LAYTYP)      (LAYAVG)       (CHANI)      (LAYVKA)      (LAYWET)
 ---------------------------------------------------------------------------
    1     UPSTREAM       HARMONIC     1.000E+00    VERTICAL K  NON-WETTABLE
    2     UPSTREAM       HARMONIC     1.000E+00    VERTICAL K  NON-WETTABLE
    3     UPSTREAM       HARMONIC     1.000E+00    VERTICAL K  NON-WETTABLE
    4     UPSTREAM       HARMONIC     1.000E+00    VERTICAL K  NON-WETTABLE
    5     UPSTREAM       HARMONIC     1.000E+00    VERTICAL K  NON-WETTABLE
    6     UPSTREAM       HARMONIC     1.000E+00    VERTICAL K  NON-WETTABLE
    7     UPSTREAM       HARMONIC     1.000E+00    VERTICAL K  NON-WETTABLE
    8     UPSTREAM       HARMONIC     1.000E+00    VERTICAL K  NON-WETTABLE
    9     UPSTREAM       HARMONIC     1.000E+00    VERTICAL K  NON-WETTABLE
   10     UPSTREAM       HARMONIC     1.000E+00    VERTICAL K  NON-WETTABLE
   11     UPSTREAM       HARMONIC     1.000E+00    VERTICAL K  NON-WETTABLE
   12     UPSTREAM       HARMONIC     1.000E+00    VERTICAL K  NON-WETTABLE
   13     UPSTREAM       HARMONIC     1.000E+00    VERTICAL K  NON-WETTABLE
   14     UPSTREAM       HARMONIC     1.000E+00    VERTICAL K  NON-WETTABLE
   15     UPSTREAM       HARMONIC     1.000E+00    VERTICAL K  NON-WETTABLE
   16     UPSTREAM       HARMONIC     1.000E+00    VERTICAL K  NON-WETTABLE
   17     UPSTREAM       HARMONIC     1.000E+00    VERTICAL K  NON-WETTABLE
   18     UPSTREAM       HARMONIC     1.000E+00    VERTICAL K  NON-WETTABLE
   19     UPSTREAM       HARMONIC     1.000E+00    VERTICAL K  NON-WETTABLE
   20     UPSTREAM       HARMONIC     1.000E+00    VERTICAL K  NON-WETTABLE
   21     UPSTREAM       HARMONIC     1.000E+00    VERTICAL K  NON-WETTABLE
   22     UPSTREAM       HARMONIC     1.000E+00    VERTICAL K  NON-WETTABLE
   23     UPSTREAM       HARMONIC     1.000E+00    VERTICAL K  NON-WETTABLE
   24     UPSTREAM       HARMONIC     1.000E+00    VERTICAL K  NON-WETTABLE
   25     UPSTREAM       HARMONIC     1.000E+00    VERTICAL K  NON-WETTABLE
   26     UPSTREAM       HARMONIC     1.000E+00    VERTICAL K  NON-WETTABLE
   27     UPSTREAM       HARMONIC     1.000E+00    VERTICAL K  NON-WETTABLE
   28     UPSTREAM       HARMONIC     1.000E+00    VERTICAL K  NON-WETTABLE
   29     UPSTREAM       HARMONIC     1.000E+00    VERTICAL K  NON-WETTABLE
   30     UPSTREAM       HARMONIC     1.000E+00    VERTICAL K  NON-WETTABLE
   31     UPSTREAM       HARMONIC     1.000E+00    VERTICAL K  NON-WETTABLE
   32     UPSTREAM       HARMONIC     1.000E+00    VERTICAL K  NON-WETTABLE
   33     UPSTREAM       HARMONIC     1.000E+00    VERTICAL K  NON-WETTABLE
   34     UPSTREAM       HARMONIC     1.000E+00    VERTICAL K  NON-WETTABLE
   35     UPSTREAM       HARMONIC     1.000E+00    VERTICAL K  NON-WETTABLE
   36     UPSTREAM       HARMONIC     1.000E+00    VERTICAL K  NON-WETTABLE
   37     UPSTREAM       HARMONIC     1.000E+00    VERTICAL K  NON-WETTABLE
   38     UPSTREAM       HARMONIC     1.000E+00    VERTICAL K  NON-WETTABLE
   39     UPSTREAM       HARMONIC     1.000E+00    VERTICAL K  NON-WETTABLE
   40     UPSTREAM       HARMONIC     1.000E+00    VERTICAL K  NON-WETTABLE
   41     UPSTREAM       HARMONIC     1.000E+00    VERTICAL K  NON-WETTABLE
   42     UPSTREAM       HARMONIC     1.000E+00    VERTICAL K  NON-WETTABLE
   43     UPSTREAM       HARMONIC     1.000E+00    VERTICAL K  NON-WETTABLE
   44     UPSTREAM       HARMONIC     1.000E+00    VERTICAL K  NON-WETTABLE
   45     UPSTREAM       HARMONIC     1.000E+00    VERTICAL K  NON-WETTABLE
   46     UPSTREAM       HARMONIC     1.000E+00    VERTICAL K  NON-WETTABLE
   47     UPSTREAM       HARMONIC     1.000E+00    VERTICAL K  NON-WETTABLE
   48     UPSTREAM       HARMONIC     1.000E+00    VERTICAL K  NON-WETTABLE
   49     UPSTREAM       HARMONIC     1.000E+00    VERTICAL K  NON-WETTABLE
   50     UPSTREAM       HARMONIC     1.000E+00    VERTICAL K  NON-WETTABLE

 WETTING CAPABILITY IS NOT ACTIVE IN ANY LAYER



              HYD. COND. ALONG ROWS FOR LAYER   1
 READING ON UNIT   11 WITH FORMAT: (FREE)              



                VERTICAL HYD. COND. FOR LAYER   1
 READING ON UNIT   11 WITH FORMAT: (FREE)              



                   SPECIFIC STORAGE FOR LAYER   1
 READING ON UNIT   11 WITH FORMAT: (FREE)              



                     SPECIFIC YIELD FOR LAYER   1
 READING ON UNIT   11 WITH FORMAT: (FREE)              



                              alpha FOR LAYER   1
 READING ON UNIT   11 WITH FORMAT: (FREE)              



                               beta FOR LAYER   1
 READING ON UNIT   11 WITH FORMAT: (FREE)              



                                 sr FOR LAYER   1
 READING ON UNIT   11 WITH FORMAT: (FREE)              



                              brook FOR LAYER   1
 READING ON UNIT   11 WITH FORMAT: (FREE)              



              HYD. COND. ALONG ROWS FOR LAYER   2
 READING ON UNIT   11 WITH FORMAT: (FREE)              



                VERTICAL HYD. COND. FOR LAYER   2
 READING ON UNIT   11 WITH FORMAT: (FREE)              



                   SPECIFIC STORAGE FOR LAYER   2
 READING ON UNIT   11 WITH FORMAT: (FREE)              



                     SPECIFIC YIELD FOR LAYER   2
 READING ON UNIT   11 WITH FORMAT: (FREE)              



                              alpha FOR LAYER   2
 READING ON UNIT   11 WITH FORMAT: (FREE)              



                               beta FOR LAYER   2
 READING ON UNIT   11 WITH FORMAT: (FREE)              



                                 sr FOR LAYER   2
 READING ON UNIT   11 WITH FORMAT: (FREE)              



                              brook FOR LAYER   2
 READING ON UNIT   11 WITH FORMAT: (FREE)              



              HYD. COND. ALONG ROWS FOR LAYER   3
 READING ON UNIT   11 WITH FORMAT: (FREE)              



                VERTICAL HYD. COND. FOR LAYER   3
 READING ON UNIT   11 WITH FORMAT: (FREE)              



                   SPECIFIC STORAGE FOR LAYER   3
 READING ON UNIT   11 WITH FORMAT: (FREE)              



                     SPECIFIC YIELD FOR LAYER   3
 READING ON UNIT   11 WITH FORMAT: (FREE)              



                              alpha FOR LAYER   3
 READING ON UNIT   11 WITH FORMAT: (FREE)              



                               beta FOR LAYER   3
 READING ON UNIT   11 WITH FORMAT: (FREE)              



                                 sr FOR LAYER   3
 READING ON UNIT   11 WITH FORMAT: (FREE)              



                              brook FOR LAYER   3
 READING ON UNIT   11 WITH FORMAT: (FREE)              



              HYD. COND. ALONG ROWS FOR LAYER   4
 READING ON UNIT   11 WITH FORMAT: (FREE)              



                VERTICAL HYD. COND. FOR LAYER   4
 READING ON UNIT   11 WITH FORMAT: (FREE)              



                   SPECIFIC STORAGE FOR LAYER   4
 READING ON UNIT   11 WITH FORMAT: (FREE)              



                     SPECIFIC YIELD FOR LAYER   4
 READING ON UNIT   11 WITH FORMAT: (FREE)              



                              alpha FOR LAYER   4
 READING ON UNIT   11 WITH FORMAT: (FREE)              



                               beta FOR LAYER   4
 READING ON UNIT   11 WITH FORMAT: (FREE)              



                                 sr FOR LAYER   4
 READING ON UNIT   11 WITH FORMAT: (FREE)              



                              brook FOR LAYER   4
 READING ON UNIT   11 WITH FORMAT: (FREE)              



              HYD. COND. ALONG ROWS FOR LAYER   5
 READING ON UNIT   11 WITH FORMAT: (FREE)              



                VERTICAL HYD. COND. FOR LAYER   5
 READING ON UNIT   11 WITH FORMAT: (FREE)              



                   SPECIFIC STORAGE FOR LAYER   5
 READING ON UNIT   11 WITH FORMAT: (FREE)              



                     SPECIFIC YIELD FOR LAYER   5
 READING ON UNIT   11 WITH FORMAT: (FREE)              



                              alpha FOR LAYER   5
 READING ON UNIT   11 WITH FORMAT: (FREE)              



                               beta FOR LAYER   5
 READING ON UNIT   11 WITH FORMAT: (FREE)              



                                 sr FOR LAYER   5
 READING ON UNIT   11 WITH FORMAT: (FREE)              



                              brook FOR LAYER   5
 READING ON UNIT   11 WITH FORMAT: (FREE)              



              HYD. COND. ALONG ROWS FOR LAYER   6
 READING ON UNIT   11 WITH FORMAT: (FREE)              



                VERTICAL HYD. COND. FOR LAYER   6
 READING ON UNIT   11 WITH FORMAT: (FREE)              



                   SPECIFIC STORAGE FOR LAYER   6
 READING ON UNIT   11 WITH FORMAT: (FREE)              



                     SPECIFIC YIELD FOR LAYER   6
 READING ON UNIT   11 WITH FORMAT: (FREE)              



                              alpha FOR LAYER   6
 READING ON UNIT   11 WITH FORMAT: (FREE)              



                               beta FOR LAYER   6
 READING ON UNIT   11 WITH FORMAT: (FREE)              



                                 sr FOR LAYER   6
 READING ON UNIT   11 WITH FORMAT: (FREE)              



                              brook FOR LAYER   6
 READING ON UNIT   11 WITH FORMAT: (FREE)              



              HYD. COND. ALONG ROWS FOR LAYER   7
 READING ON UNIT   11 WITH FORMAT: (FREE)              



                VERTICAL HYD. COND. FOR LAYER   7
 READING ON UNIT   11 WITH FORMAT: (FREE)              



                   SPECIFIC STORAGE FOR LAYER   7
 READING ON UNIT   11 WITH FORMAT: (FREE)              



                     SPECIFIC YIELD FOR LAYER   7
 READING ON UNIT   11 WITH FORMAT: (FREE)              



                              alpha FOR LAYER   7
 READING ON UNIT   11 WITH FORMAT: (FREE)              



                               beta FOR LAYER   7
 READING ON UNIT   11 WITH FORMAT: (FREE)              



                                 sr FOR LAYER   7
 READING ON UNIT   11 WITH FORMAT: (FREE)              



                              brook FOR LAYER   7
 READING ON UNIT   11 WITH FORMAT: (FREE)              



              HYD. COND. ALONG ROWS FOR LAYER   8
 READING ON UNIT   11 WITH FORMAT: (FREE)              



                VERTICAL HYD. COND. FOR LAYER   8
 READING ON UNIT   11 WITH FORMAT: (FREE)              



                   SPECIFIC STORAGE FOR LAYER   8
 READING ON UNIT   11 WITH FORMAT: (FREE)              



                     SPECIFIC YIELD FOR LAYER   8
 READING ON UNIT   11 WITH FORMAT: (FREE)              



                              alpha FOR LAYER   8
 READING ON UNIT   11 WITH FORMAT: (FREE)              



                               beta FOR LAYER   8
 READING ON UNIT   11 WITH FORMAT: (FREE)              



                                 sr FOR LAYER   8
 READING ON UNIT   11 WITH FORMAT: (FREE)              



                              brook FOR LAYER   8
 READING ON UNIT   11 WITH FORMAT: (FREE)              



              HYD. COND. ALONG ROWS FOR LAYER   9
 READING ON UNIT   11 WITH FORMAT: (FREE)              



                VERTICAL HYD. COND. FOR LAYER   9
 READING ON UNIT   11 WITH FORMAT: (FREE)              



                   SPECIFIC STORAGE FOR LAYER   9
 READING ON UNIT   11 WITH FORMAT: (FREE)              



                     SPECIFIC YIELD FOR LAYER   9
 READING ON UNIT   11 WITH FORMAT: (FREE)              



                              alpha FOR LAYER   9
 READING ON UNIT   11 WITH FORMAT: (FREE)              



                               beta FOR LAYER   9
 READING ON UNIT   11 WITH FORMAT: (FREE)              



                                 sr FOR LAYER   9
 READING ON UNIT   11 WITH FORMAT: (FREE)              



                              brook FOR LAYER   9
 READING ON UNIT   11 WITH FORMAT: (FREE)              



              HYD. COND. ALONG ROWS FOR LAYER  10
 READING ON UNIT   11 WITH FORMAT: (FREE)              



                VERTICAL HYD. COND. FOR LAYER  10
 READING ON UNIT   11 WITH FORMAT: (FREE)              



                   SPECIFIC STORAGE FOR LAYER  10
 READING ON UNIT   11 WITH FORMAT: (FREE)              



                     SPECIFIC YIELD FOR LAYER  10
 READING ON UNIT   11 WITH FORMAT: (FREE)              



                              alpha FOR LAYER  10
 READING ON UNIT   11 WITH FORMAT: (FREE)              



                               beta FOR LAYER  10
 READING ON UNIT   11 WITH FORMAT: (FREE)              



                                 sr FOR LAYER  10
 READING ON UNIT   11 WITH FORMAT: (FREE)              



                              brook FOR LAYER  10
 READING ON UNIT   11 WITH FORMAT: (FREE)              



              HYD. COND. ALONG ROWS FOR LAYER  11
 READING ON UNIT   11 WITH FORMAT: (FREE)              



                VERTICAL HYD. COND. FOR LAYER  11
 READING ON UNIT   11 WITH FORMAT: (FREE)              



                   SPECIFIC STORAGE FOR LAYER  11
 READING ON UNIT   11 WITH FORMAT: (FREE)              



                     SPECIFIC YIELD FOR LAYER  11
 READING ON UNIT   11 WITH FORMAT: (FREE)              



                              alpha FOR LAYER  11
 READING ON UNIT   11 WITH FORMAT: (FREE)              



                               beta FOR LAYER  11
 READING ON UNIT   11 WITH FORMAT: (FREE)              



                                 sr FOR LAYER  11
 READING ON UNIT   11 WITH FORMAT: (FREE)              



                              brook FOR LAYER  11
 READING ON UNIT   11 WITH FORMAT: (FREE)              



              HYD. COND. ALONG ROWS FOR LAYER  12
 READING ON UNIT   11 WITH FORMAT: (FREE)              



                VERTICAL HYD. COND. FOR LAYER  12
 READING ON UNIT   11 WITH FORMAT: (FREE)              



                   SPECIFIC STORAGE FOR LAYER  12
 READING ON UNIT   11 WITH FORMAT: (FREE)              



                     SPECIFIC YIELD FOR LAYER  12
 READING ON UNIT   11 WITH FORMAT: (FREE)              



                              alpha FOR LAYER  12
 READING ON UNIT   11 WITH FORMAT: (FREE)              



                               beta FOR LAYER  12
 READING ON UNIT   11 WITH FORMAT: (FREE)              



                                 sr FOR LAYER  12
 READING ON UNIT   11 WITH FORMAT: (FREE)              



                              brook FOR LAYER  12
 READING ON UNIT   11 WITH FORMAT: (FREE)              



              HYD. COND. ALONG ROWS FOR LAYER  13
 READING ON UNIT   11 WITH FORMAT: (FREE)              



                VERTICAL HYD. COND. FOR LAYER  13
 READING ON UNIT   11 WITH FORMAT: (FREE)              



                   SPECIFIC STORAGE FOR LAYER  13
 READING ON UNIT   11 WITH FORMAT: (FREE)              



                     SPECIFIC YIELD FOR LAYER  13
 READING ON UNIT   11 WITH FORMAT: (FREE)              



                              alpha FOR LAYER  13
 READING ON UNIT   11 WITH FORMAT: (FREE)              



                               beta FOR LAYER  13
 READING ON UNIT   11 WITH FORMAT: (FREE)              



                                 sr FOR LAYER  13
 READING ON UNIT   11 WITH FORMAT: (FREE)              



                              brook FOR LAYER  13
 READING ON UNIT   11 WITH FORMAT: (FREE)              



              HYD. COND. ALONG ROWS FOR LAYER  14
 READING ON UNIT   11 WITH FORMAT: (FREE)              



                VERTICAL HYD. COND. FOR LAYER  14
 READING ON UNIT   11 WITH FORMAT: (FREE)              



                   SPECIFIC STORAGE FOR LAYER  14
 READING ON UNIT   11 WITH FORMAT: (FREE)              



                     SPECIFIC YIELD FOR LAYER  14
 READING ON UNIT   11 WITH FORMAT: (FREE)              



                              alpha FOR LAYER  14
 READING ON UNIT   11 WITH FORMAT: (FREE)              



                               beta FOR LAYER  14
 READING ON UNIT   11 WITH FORMAT: (FREE)              



                                 sr FOR LAYER  14
 READING ON UNIT   11 WITH FORMAT: (FREE)              



                              brook FOR LAYER  14
 READING ON UNIT   11 WITH FORMAT: (FREE)              



              HYD. COND. ALONG ROWS FOR LAYER  15
 READING ON UNIT   11 WITH FORMAT: (FREE)              



                VERTICAL HYD. COND. FOR LAYER  15
 READING ON UNIT   11 WITH FORMAT: (FREE)              



                   SPECIFIC STORAGE FOR LAYER  15
 READING ON UNIT   11 WITH FORMAT: (FREE)              



                     SPECIFIC YIELD FOR LAYER  15
 READING ON UNIT   11 WITH FORMAT: (FREE)              



                              alpha FOR LAYER  15
 READING ON UNIT   11 WITH FORMAT: (FREE)              



                               beta FOR LAYER  15
 READING ON UNIT   11 WITH FORMAT: (FREE)              



                                 sr FOR LAYER  15
 READING ON UNIT   11 WITH FORMAT: (FREE)              



                              brook FOR LAYER  15
 READING ON UNIT   11 WITH FORMAT: (FREE)              



              HYD. COND. ALONG ROWS FOR LAYER  16
 READING ON UNIT   11 WITH FORMAT: (FREE)              



                VERTICAL HYD. COND. FOR LAYER  16
 READING ON UNIT   11 WITH FORMAT: (FREE)              



                   SPECIFIC STORAGE FOR LAYER  16
 READING ON UNIT   11 WITH FORMAT: (FREE)              



                     SPECIFIC YIELD FOR LAYER  16
 READING ON UNIT   11 WITH FORMAT: (FREE)              



                              alpha FOR LAYER  16
 READING ON UNIT   11 WITH FORMAT: (FREE)              



                               beta FOR LAYER  16
 READING ON UNIT   11 WITH FORMAT: (FREE)              



                                 sr FOR LAYER  16
 READING ON UNIT   11 WITH FORMAT: (FREE)              



                              brook FOR LAYER  16
 READING ON UNIT   11 WITH FORMAT: (FREE)              



              HYD. COND. ALONG ROWS FOR LAYER  17
 READING ON UNIT   11 WITH FORMAT: (FREE)              



                VERTICAL HYD. COND. FOR LAYER  17
 READING ON UNIT   11 WITH FORMAT: (FREE)              



                   SPECIFIC STORAGE FOR LAYER  17
 READING ON UNIT   11 WITH FORMAT: (FREE)              



                     SPECIFIC YIELD FOR LAYER  17
 READING ON UNIT   11 WITH FORMAT: (FREE)              



                              alpha FOR LAYER  17
 READING ON UNIT   11 WITH FORMAT: (FREE)              



                               beta FOR LAYER  17
 READING ON UNIT   11 WITH FORMAT: (FREE)              



                                 sr FOR LAYER  17
 READING ON UNIT   11 WITH FORMAT: (FREE)              



                              brook FOR LAYER  17
 READING ON UNIT   11 WITH FORMAT: (FREE)              



              HYD. COND. ALONG ROWS FOR LAYER  18
 READING ON UNIT   11 WITH FORMAT: (FREE)              



                VERTICAL HYD. COND. FOR LAYER  18
 READING ON UNIT   11 WITH FORMAT: (FREE)              



                   SPECIFIC STORAGE FOR LAYER  18
 READING ON UNIT   11 WITH FORMAT: (FREE)              



                     SPECIFIC YIELD FOR LAYER  18
 READING ON UNIT   11 WITH FORMAT: (FREE)              



                              alpha FOR LAYER  18
 READING ON UNIT   11 WITH FORMAT: (FREE)              



                               beta FOR LAYER  18
 READING ON UNIT   11 WITH FORMAT: (FREE)              



                                 sr FOR LAYER  18
 READING ON UNIT   11 WITH FORMAT: (FREE)              



                              brook FOR LAYER  18
 READING ON UNIT   11 WITH FORMAT: (FREE)              



              HYD. COND. ALONG ROWS FOR LAYER  19
 READING ON UNIT   11 WITH FORMAT: (FREE)              



                VERTICAL HYD. COND. FOR LAYER  19
 READING ON UNIT   11 WITH FORMAT: (FREE)              



                   SPECIFIC STORAGE FOR LAYER  19
 READING ON UNIT   11 WITH FORMAT: (FREE)              



                     SPECIFIC YIELD FOR LAYER  19
 READING ON UNIT   11 WITH FORMAT: (FREE)              



                              alpha FOR LAYER  19
 READING ON UNIT   11 WITH FORMAT: (FREE)              



                               beta FOR LAYER  19
 READING ON UNIT   11 WITH FORMAT: (FREE)              



                                 sr FOR LAYER  19
 READING ON UNIT   11 WITH FORMAT: (FREE)              



                              brook FOR LAYER  19
 READING ON UNIT   11 WITH FORMAT: (FREE)              



              HYD. COND. ALONG ROWS FOR LAYER  20
 READING ON UNIT   11 WITH FORMAT: (FREE)              



                VERTICAL HYD. COND. FOR LAYER  20
 READING ON UNIT   11 WITH FORMAT: (FREE)              



                   SPECIFIC STORAGE FOR LAYER  20
 READING ON UNIT   11 WITH FORMAT: (FREE)              



                     SPECIFIC YIELD FOR LAYER  20
 READING ON UNIT   11 WITH FORMAT: (FREE)              



                              alpha FOR LAYER  20
 READING ON UNIT   11 WITH FORMAT: (FREE)              



                               beta FOR LAYER  20
 READING ON UNIT   11 WITH FORMAT: (FREE)              



                                 sr FOR LAYER  20
 READING ON UNIT   11 WITH FORMAT: (FREE)              



                              brook FOR LAYER  20
 READING ON UNIT   11 WITH FORMAT: (FREE)              



              HYD. COND. ALONG ROWS FOR LAYER  21
 READING ON UNIT   11 WITH FORMAT: (FREE)              



                VERTICAL HYD. COND. FOR LAYER  21
 READING ON UNIT   11 WITH FORMAT: (FREE)              



                   SPECIFIC STORAGE FOR LAYER  21
 READING ON UNIT   11 WITH FORMAT: (FREE)              



                     SPECIFIC YIELD FOR LAYER  21
 READING ON UNIT   11 WITH FORMAT: (FREE)              



                              alpha FOR LAYER  21
 READING ON UNIT   11 WITH FORMAT: (FREE)              



                               beta FOR LAYER  21
 READING ON UNIT   11 WITH FORMAT: (FREE)              



                                 sr FOR LAYER  21
 READING ON UNIT   11 WITH FORMAT: (FREE)              



                              brook FOR LAYER  21
 READING ON UNIT   11 WITH FORMAT: (FREE)              



              HYD. COND. ALONG ROWS FOR LAYER  22
 READING ON UNIT   11 WITH FORMAT: (FREE)              



                VERTICAL HYD. COND. FOR LAYER  22
 READING ON UNIT   11 WITH FORMAT: (FREE)              



                   SPECIFIC STORAGE FOR LAYER  22
 READING ON UNIT   11 WITH FORMAT: (FREE)              



                     SPECIFIC YIELD FOR LAYER  22
 READING ON UNIT   11 WITH FORMAT: (FREE)              



                              alpha FOR LAYER  22
 READING ON UNIT   11 WITH FORMAT: (FREE)              



                               beta FOR LAYER  22
 READING ON UNIT   11 WITH FORMAT: (FREE)              



                                 sr FOR LAYER  22
 READING ON UNIT   11 WITH FORMAT: (FREE)              



                              brook FOR LAYER  22
 READING ON UNIT   11 WITH FORMAT: (FREE)              



              HYD. COND. ALONG ROWS FOR LAYER  23
 READING ON UNIT   11 WITH FORMAT: (FREE)              



                VERTICAL HYD. COND. FOR LAYER  23
 READING ON UNIT   11 WITH FORMAT: (FREE)              



                   SPECIFIC STORAGE FOR LAYER  23
 READING ON UNIT   11 WITH FORMAT: (FREE)              



                     SPECIFIC YIELD FOR LAYER  23
 READING ON UNIT   11 WITH FORMAT: (FREE)              



                              alpha FOR LAYER  23
 READING ON UNIT   11 WITH FORMAT: (FREE)              



                               beta FOR LAYER  23
 READING ON UNIT   11 WITH FORMAT: (FREE)              



                                 sr FOR LAYER  23
 READING ON UNIT   11 WITH FORMAT: (FREE)              



                              brook FOR LAYER  23
 READING ON UNIT   11 WITH FORMAT: (FREE)              



              HYD. COND. ALONG ROWS FOR LAYER  24
 READING ON UNIT   11 WITH FORMAT: (FREE)              



                VERTICAL HYD. COND. FOR LAYER  24
 READING ON UNIT   11 WITH FORMAT: (FREE)              



                   SPECIFIC STORAGE FOR LAYER  24
 READING ON UNIT   11 WITH FORMAT: (FREE)              



                     SPECIFIC YIELD FOR LAYER  24
 READING ON UNIT   11 WITH FORMAT: (FREE)              



                              alpha FOR LAYER  24
 READING ON UNIT   11 WITH FORMAT: (FREE)              



                               beta FOR LAYER  24
 READING ON UNIT   11 WITH FORMAT: (FREE)              



                                 sr FOR LAYER  24
 READING ON UNIT   11 WITH FORMAT: (FREE)              



                              brook FOR LAYER  24
 READING ON UNIT   11 WITH FORMAT: (FREE)              



              HYD. COND. ALONG ROWS FOR LAYER  25
 READING ON UNIT   11 WITH FORMAT: (FREE)              



                VERTICAL HYD. COND. FOR LAYER  25
 READING ON UNIT   11 WITH FORMAT: (FREE)              



                   SPECIFIC STORAGE FOR LAYER  25
 READING ON UNIT   11 WITH FORMAT: (FREE)              



                     SPECIFIC YIELD FOR LAYER  25
 READING ON UNIT   11 WITH FORMAT: (FREE)              



                              alpha FOR LAYER  25
 READING ON UNIT   11 WITH FORMAT: (FREE)              



                               beta FOR LAYER  25
 READING ON UNIT   11 WITH FORMAT: (FREE)              



                                 sr FOR LAYER  25
 READING ON UNIT   11 WITH FORMAT: (FREE)              



                              brook FOR LAYER  25
 READING ON UNIT   11 WITH FORMAT: (FREE)              



              HYD. COND. ALONG ROWS FOR LAYER  26
 READING ON UNIT   11 WITH FORMAT: (FREE)              



                VERTICAL HYD. COND. FOR LAYER  26
 READING ON UNIT   11 WITH FORMAT: (FREE)              



                   SPECIFIC STORAGE FOR LAYER  26
 READING ON UNIT   11 WITH FORMAT: (FREE)              



                     SPECIFIC YIELD FOR LAYER  26
 READING ON UNIT   11 WITH FORMAT: (FREE)              



                              alpha FOR LAYER  26
 READING ON UNIT   11 WITH FORMAT: (FREE)              



                               beta FOR LAYER  26
 READING ON UNIT   11 WITH FORMAT: (FREE)              



                                 sr FOR LAYER  26
 READING ON UNIT   11 WITH FORMAT: (FREE)              



                              brook FOR LAYER  26
 READING ON UNIT   11 WITH FORMAT: (FREE)              



              HYD. COND. ALONG ROWS FOR LAYER  27
 READING ON UNIT   11 WITH FORMAT: (FREE)              



                VERTICAL HYD. COND. FOR LAYER  27
 READING ON UNIT   11 WITH FORMAT: (FREE)              



                   SPECIFIC STORAGE FOR LAYER  27
 READING ON UNIT   11 WITH FORMAT: (FREE)              



                     SPECIFIC YIELD FOR LAYER  27
 READING ON UNIT   11 WITH FORMAT: (FREE)              



                              alpha FOR LAYER  27
 READING ON UNIT   11 WITH FORMAT: (FREE)              



                               beta FOR LAYER  27
 READING ON UNIT   11 WITH FORMAT: (FREE)              



                                 sr FOR LAYER  27
 READING ON UNIT   11 WITH FORMAT: (FREE)              



                              brook FOR LAYER  27
 READING ON UNIT   11 WITH FORMAT: (FREE)              



              HYD. COND. ALONG ROWS FOR LAYER  28
 READING ON UNIT   11 WITH FORMAT: (FREE)              



                VERTICAL HYD. COND. FOR LAYER  28
 READING ON UNIT   11 WITH FORMAT: (FREE)              



                   SPECIFIC STORAGE FOR LAYER  28
 READING ON UNIT   11 WITH FORMAT: (FREE)              



                     SPECIFIC YIELD FOR LAYER  28
 READING ON UNIT   11 WITH FORMAT: (FREE)              



                              alpha FOR LAYER  28
 READING ON UNIT   11 WITH FORMAT: (FREE)              



                               beta FOR LAYER  28
 READING ON UNIT   11 WITH FORMAT: (FREE)              



                                 sr FOR LAYER  28
 READING ON UNIT   11 WITH FORMAT: (FREE)              



                              brook FOR LAYER  28
 READING ON UNIT   11 WITH FORMAT: (FREE)              



              HYD. COND. ALONG ROWS FOR LAYER  29
 READING ON UNIT   11 WITH FORMAT: (FREE)              



                VERTICAL HYD. COND. FOR LAYER  29
 READING ON UNIT   11 WITH FORMAT: (FREE)              



                   SPECIFIC STORAGE FOR LAYER  29
 READING ON UNIT   11 WITH FORMAT: (FREE)              



                     SPECIFIC YIELD FOR LAYER  29
 READING ON UNIT   11 WITH FORMAT: (FREE)              



                              alpha FOR LAYER  29
 READING ON UNIT   11 WITH FORMAT: (FREE)              



                               beta FOR LAYER  29
 READING ON UNIT   11 WITH FORMAT: (FREE)              



                                 sr FOR LAYER  29
 READING ON UNIT   11 WITH FORMAT: (FREE)              



                              brook FOR LAYER  29
 READING ON UNIT   11 WITH FORMAT: (FREE)              



              HYD. COND. ALONG ROWS FOR LAYER  30
 READING ON UNIT   11 WITH FORMAT: (FREE)              



                VERTICAL HYD. COND. FOR LAYER  30
 READING ON UNIT   11 WITH FORMAT: (FREE)              



                   SPECIFIC STORAGE FOR LAYER  30
 READING ON UNIT   11 WITH FORMAT: (FREE)              



                     SPECIFIC YIELD FOR LAYER  30
 READING ON UNIT   11 WITH FORMAT: (FREE)              



                              alpha FOR LAYER  30
 READING ON UNIT   11 WITH FORMAT: (FREE)              



                               beta FOR LAYER  30
 READING ON UNIT   11 WITH FORMAT: (FREE)              



                                 sr FOR LAYER  30
 READING ON UNIT   11 WITH FORMAT: (FREE)              



                              brook FOR LAYER  30
 READING ON UNIT   11 WITH FORMAT: (FREE)              



              HYD. COND. ALONG ROWS FOR LAYER  31
 READING ON UNIT   11 WITH FORMAT: (FREE)              



                VERTICAL HYD. COND. FOR LAYER  31
 READING ON UNIT   11 WITH FORMAT: (FREE)              



                   SPECIFIC STORAGE FOR LAYER  31
 READING ON UNIT   11 WITH FORMAT: (FREE)              



                     SPECIFIC YIELD FOR LAYER  31
 READING ON UNIT   11 WITH FORMAT: (FREE)              



                              alpha FOR LAYER  31
 READING ON UNIT   11 WITH FORMAT: (FREE)              



                               beta FOR LAYER  31
 READING ON UNIT   11 WITH FORMAT: (FREE)              



                                 sr FOR LAYER  31
 READING ON UNIT   11 WITH FORMAT: (FREE)              



                              brook FOR LAYER  31
 READING ON UNIT   11 WITH FORMAT: (FREE)              



              HYD. COND. ALONG ROWS FOR LAYER  32
 READING ON UNIT   11 WITH FORMAT: (FREE)              



                VERTICAL HYD. COND. FOR LAYER  32
 READING ON UNIT   11 WITH FORMAT: (FREE)              



                   SPECIFIC STORAGE FOR LAYER  32
 READING ON UNIT   11 WITH FORMAT: (FREE)              



                     SPECIFIC YIELD FOR LAYER  32
 READING ON UNIT   11 WITH FORMAT: (FREE)              



                              alpha FOR LAYER  32
 READING ON UNIT   11 WITH FORMAT: (FREE)              



                               beta FOR LAYER  32
 READING ON UNIT   11 WITH FORMAT: (FREE)              



                                 sr FOR LAYER  32
 READING ON UNIT   11 WITH FORMAT: (FREE)              



                              brook FOR LAYER  32
 READING ON UNIT   11 WITH FORMAT: (FREE)              



              HYD. COND. ALONG ROWS FOR LAYER  33
 READING ON UNIT   11 WITH FORMAT: (FREE)              



                VERTICAL HYD. COND. FOR LAYER  33
 READING ON UNIT   11 WITH FORMAT: (FREE)              



                   SPECIFIC STORAGE FOR LAYER  33
 READING ON UNIT   11 WITH FORMAT: (FREE)              



                     SPECIFIC YIELD FOR LAYER  33
 READING ON UNIT   11 WITH FORMAT: (FREE)              



                              alpha FOR LAYER  33
 READING ON UNIT   11 WITH FORMAT: (FREE)              



                               beta FOR LAYER  33
 READING ON UNIT   11 WITH FORMAT: (FREE)              



                                 sr FOR LAYER  33
 READING ON UNIT   11 WITH FORMAT: (FREE)              



                              brook FOR LAYER  33
 READING ON UNIT   11 WITH FORMAT: (FREE)              



              HYD. COND. ALONG ROWS FOR LAYER  34
 READING ON UNIT   11 WITH FORMAT: (FREE)              



                VERTICAL HYD. COND. FOR LAYER  34
 READING ON UNIT   11 WITH FORMAT: (FREE)              



                   SPECIFIC STORAGE FOR LAYER  34
 READING ON UNIT   11 WITH FORMAT: (FREE)              



                     SPECIFIC YIELD FOR LAYER  34
 READING ON UNIT   11 WITH FORMAT: (FREE)              



                              alpha FOR LAYER  34
 READING ON UNIT   11 WITH FORMAT: (FREE)              



                               beta FOR LAYER  34
 READING ON UNIT   11 WITH FORMAT: (FREE)              



                                 sr FOR LAYER  34
 READING ON UNIT   11 WITH FORMAT: (FREE)              



                              brook FOR LAYER  34
 READING ON UNIT   11 WITH FORMAT: (FREE)              



              HYD. COND. ALONG ROWS FOR LAYER  35
 READING ON UNIT   11 WITH FORMAT: (FREE)              



                VERTICAL HYD. COND. FOR LAYER  35
 READING ON UNIT   11 WITH FORMAT: (FREE)              



                   SPECIFIC STORAGE FOR LAYER  35
 READING ON UNIT   11 WITH FORMAT: (FREE)              



                     SPECIFIC YIELD FOR LAYER  35
 READING ON UNIT   11 WITH FORMAT: (FREE)              



                              alpha FOR LAYER  35
 READING ON UNIT   11 WITH FORMAT: (FREE)              



                               beta FOR LAYER  35
 READING ON UNIT   11 WITH FORMAT: (FREE)              



                                 sr FOR LAYER  35
 READING ON UNIT   11 WITH FORMAT: (FREE)              



                              brook FOR LAYER  35
 READING ON UNIT   11 WITH FORMAT: (FREE)              



              HYD. COND. ALONG ROWS FOR LAYER  36
 READING ON UNIT   11 WITH FORMAT: (FREE)              



                VERTICAL HYD. COND. FOR LAYER  36
 READING ON UNIT   11 WITH FORMAT: (FREE)              



                   SPECIFIC STORAGE FOR LAYER  36
 READING ON UNIT   11 WITH FORMAT: (FREE)              



                     SPECIFIC YIELD FOR LAYER  36
 READING ON UNIT   11 WITH FORMAT: (FREE)              



                              alpha FOR LAYER  36
 READING ON UNIT   11 WITH FORMAT: (FREE)              



                               beta FOR LAYER  36
 READING ON UNIT   11 WITH FORMAT: (FREE)              



                                 sr FOR LAYER  36
 READING ON UNIT   11 WITH FORMAT: (FREE)              



                              brook FOR LAYER  36
 READING ON UNIT   11 WITH FORMAT: (FREE)              



              HYD. COND. ALONG ROWS FOR LAYER  37
 READING ON UNIT   11 WITH FORMAT: (FREE)              



                VERTICAL HYD. COND. FOR LAYER  37
 READING ON UNIT   11 WITH FORMAT: (FREE)              



                   SPECIFIC STORAGE FOR LAYER  37
 READING ON UNIT   11 WITH FORMAT: (FREE)              



                     SPECIFIC YIELD FOR LAYER  37
 READING ON UNIT   11 WITH FORMAT: (FREE)              



                              alpha FOR LAYER  37
 READING ON UNIT   11 WITH FORMAT: (FREE)              



                               beta FOR LAYER  37
 READING ON UNIT   11 WITH FORMAT: (FREE)              



                                 sr FOR LAYER  37
 READING ON UNIT   11 WITH FORMAT: (FREE)              



                              brook FOR LAYER  37
 READING ON UNIT   11 WITH FORMAT: (FREE)              



              HYD. COND. ALONG ROWS FOR LAYER  38
 READING ON UNIT   11 WITH FORMAT: (FREE)              



                VERTICAL HYD. COND. FOR LAYER  38
 READING ON UNIT   11 WITH FORMAT: (FREE)              



                   SPECIFIC STORAGE FOR LAYER  38
 READING ON UNIT   11 WITH FORMAT: (FREE)              



                     SPECIFIC YIELD FOR LAYER  38
 READING ON UNIT   11 WITH FORMAT: (FREE)              



                              alpha FOR LAYER  38
 READING ON UNIT   11 WITH FORMAT: (FREE)              



                               beta FOR LAYER  38
 READING ON UNIT   11 WITH FORMAT: (FREE)              



                                 sr FOR LAYER  38
 READING ON UNIT   11 WITH FORMAT: (FREE)              



                              brook FOR LAYER  38
 READING ON UNIT   11 WITH FORMAT: (FREE)              



              HYD. COND. ALONG ROWS FOR LAYER  39
 READING ON UNIT   11 WITH FORMAT: (FREE)              



                VERTICAL HYD. COND. FOR LAYER  39
 READING ON UNIT   11 WITH FORMAT: (FREE)              



                   SPECIFIC STORAGE FOR LAYER  39
 READING ON UNIT   11 WITH FORMAT: (FREE)              



                     SPECIFIC YIELD FOR LAYER  39
 READING ON UNIT   11 WITH FORMAT: (FREE)              



                              alpha FOR LAYER  39
 READING ON UNIT   11 WITH FORMAT: (FREE)              



                               beta FOR LAYER  39
 READING ON UNIT   11 WITH FORMAT: (FREE)              



                                 sr FOR LAYER  39
 READING ON UNIT   11 WITH FORMAT: (FREE)              



                              brook FOR LAYER  39
 READING ON UNIT   11 WITH FORMAT: (FREE)              



              HYD. COND. ALONG ROWS FOR LAYER  40
 READING ON UNIT   11 WITH FORMAT: (FREE)              



                VERTICAL HYD. COND. FOR LAYER  40
 READING ON UNIT   11 WITH FORMAT: (FREE)              



                   SPECIFIC STORAGE FOR LAYER  40
 READING ON UNIT   11 WITH FORMAT: (FREE)              



                     SPECIFIC YIELD FOR LAYER  40
 READING ON UNIT   11 WITH FORMAT: (FREE)              



                              alpha FOR LAYER  40
 READING ON UNIT   11 WITH FORMAT: (FREE)              



                               beta FOR LAYER  40
 READING ON UNIT   11 WITH FORMAT: (FREE)              



                                 sr FOR LAYER  40
 READING ON UNIT   11 WITH FORMAT: (FREE)              



                              brook FOR LAYER  40
 READING ON UNIT   11 WITH FORMAT: (FREE)              



              HYD. COND. ALONG ROWS FOR LAYER  41
 READING ON UNIT   11 WITH FORMAT: (FREE)              



                VERTICAL HYD. COND. FOR LAYER  41
 READING ON UNIT   11 WITH FORMAT: (FREE)              



                   SPECIFIC STORAGE FOR LAYER  41
 READING ON UNIT   11 WITH FORMAT: (FREE)              



                     SPECIFIC YIELD FOR LAYER  41
 READING ON UNIT   11 WITH FORMAT: (FREE)              



                              alpha FOR LAYER  41
 READING ON UNIT   11 WITH FORMAT: (FREE)              



                               beta FOR LAYER  41
 READING ON UNIT   11 WITH FORMAT: (FREE)              



                                 sr FOR LAYER  41
 READING ON UNIT   11 WITH FORMAT: (FREE)              



                              brook FOR LAYER  41
 READING ON UNIT   11 WITH FORMAT: (FREE)              



              HYD. COND. ALONG ROWS FOR LAYER  42
 READING ON UNIT   11 WITH FORMAT: (FREE)              



                VERTICAL HYD. COND. FOR LAYER  42
 READING ON UNIT   11 WITH FORMAT: (FREE)              



                   SPECIFIC STORAGE FOR LAYER  42
 READING ON UNIT   11 WITH FORMAT: (FREE)              



                     SPECIFIC YIELD FOR LAYER  42
 READING ON UNIT   11 WITH FORMAT: (FREE)              



                              alpha FOR LAYER  42
 READING ON UNIT   11 WITH FORMAT: (FREE)              



                               beta FOR LAYER  42
 READING ON UNIT   11 WITH FORMAT: (FREE)              



                                 sr FOR LAYER  42
 READING ON UNIT   11 WITH FORMAT: (FREE)              



                              brook FOR LAYER  42
 READING ON UNIT   11 WITH FORMAT: (FREE)              



              HYD. COND. ALONG ROWS FOR LAYER  43
 READING ON UNIT   11 WITH FORMAT: (FREE)              



                VERTICAL HYD. COND. FOR LAYER  43
 READING ON UNIT   11 WITH FORMAT: (FREE)              



                   SPECIFIC STORAGE FOR LAYER  43
 READING ON UNIT   11 WITH FORMAT: (FREE)              



                     SPECIFIC YIELD FOR LAYER  43
 READING ON UNIT   11 WITH FORMAT: (FREE)              



                              alpha FOR LAYER  43
 READING ON UNIT   11 WITH FORMAT: (FREE)              



                               beta FOR LAYER  43
 READING ON UNIT   11 WITH FORMAT: (FREE)              



                                 sr FOR LAYER  43
 READING ON UNIT   11 WITH FORMAT: (FREE)              



                              brook FOR LAYER  43
 READING ON UNIT   11 WITH FORMAT: (FREE)              



              HYD. COND. ALONG ROWS FOR LAYER  44
 READING ON UNIT   11 WITH FORMAT: (FREE)              



                VERTICAL HYD. COND. FOR LAYER  44
 READING ON UNIT   11 WITH FORMAT: (FREE)              



                   SPECIFIC STORAGE FOR LAYER  44
 READING ON UNIT   11 WITH FORMAT: (FREE)              



                     SPECIFIC YIELD FOR LAYER  44
 READING ON UNIT   11 WITH FORMAT: (FREE)              



                              alpha FOR LAYER  44
 READING ON UNIT   11 WITH FORMAT: (FREE)              



                               beta FOR LAYER  44
 READING ON UNIT   11 WITH FORMAT: (FREE)              



                                 sr FOR LAYER  44
 READING ON UNIT   11 WITH FORMAT: (FREE)              



                              brook FOR LAYER  44
 READING ON UNIT   11 WITH FORMAT: (FREE)              



              HYD. COND. ALONG ROWS FOR LAYER  45
 READING ON UNIT   11 WITH FORMAT: (FREE)              



                VERTICAL HYD. COND. FOR LAYER  45
 READING ON UNIT   11 WITH FORMAT: (FREE)              



                   SPECIFIC STORAGE FOR LAYER  45
 READING ON UNIT   11 WITH FORMAT: (FREE)              



                     SPECIFIC YIELD FOR LAYER  45
 READING ON UNIT   11 WITH FORMAT: (FREE)              



                              alpha FOR LAYER  45
 READING ON UNIT   11 WITH FORMAT: (FREE)              



                               beta FOR LAYER  45
 READING ON UNIT   11 WITH FORMAT: (FREE)              



                                 sr FOR LAYER  45
 READING ON UNIT   11 WITH FORMAT: (FREE)              



                              brook FOR LAYER  45
 READING ON UNIT   11 WITH FORMAT: (FREE)              



              HYD. COND. ALONG ROWS FOR LAYER  46
 READING ON UNIT   11 WITH FORMAT: (FREE)              



                VERTICAL HYD. COND. FOR LAYER  46
 READING ON UNIT   11 WITH FORMAT: (FREE)              



                   SPECIFIC STORAGE FOR LAYER  46
 READING ON UNIT   11 WITH FORMAT: (FREE)              



                     SPECIFIC YIELD FOR LAYER  46
 READING ON UNIT   11 WITH FORMAT: (FREE)              



                              alpha FOR LAYER  46
 READING ON UNIT   11 WITH FORMAT: (FREE)              



                               beta FOR LAYER  46
 READING ON UNIT   11 WITH FORMAT: (FREE)              



                                 sr FOR LAYER  46
 READING ON UNIT   11 WITH FORMAT: (FREE)              



                              brook FOR LAYER  46
 READING ON UNIT   11 WITH FORMAT: (FREE)              



              HYD. COND. ALONG ROWS FOR LAYER  47
 READING ON UNIT   11 WITH FORMAT: (FREE)              



                VERTICAL HYD. COND. FOR LAYER  47
 READING ON UNIT   11 WITH FORMAT: (FREE)              



                   SPECIFIC STORAGE FOR LAYER  47
 READING ON UNIT   11 WITH FORMAT: (FREE)              



                     SPECIFIC YIELD FOR LAYER  47
 READING ON UNIT   11 WITH FORMAT: (FREE)              



                              alpha FOR LAYER  47
 READING ON UNIT   11 WITH FORMAT: (FREE)              



                               beta FOR LAYER  47
 READING ON UNIT   11 WITH FORMAT: (FREE)              



                                 sr FOR LAYER  47
 READING ON UNIT   11 WITH FORMAT: (FREE)              



                              brook FOR LAYER  47
 READING ON UNIT   11 WITH FORMAT: (FREE)              



              HYD. COND. ALONG ROWS FOR LAYER  48
 READING ON UNIT   11 WITH FORMAT: (FREE)              



                VERTICAL HYD. COND. FOR LAYER  48
 READING ON UNIT   11 WITH FORMAT: (FREE)              



                   SPECIFIC STORAGE FOR LAYER  48
 READING ON UNIT   11 WITH FORMAT: (FREE)              



                     SPECIFIC YIELD FOR LAYER  48
 READING ON UNIT   11 WITH FORMAT: (FREE)              



                              alpha FOR LAYER  48
 READING ON UNIT   11 WITH FORMAT: (FREE)              



                               beta FOR LAYER  48
 READING ON UNIT   11 WITH FORMAT: (FREE)              



                                 sr FOR LAYER  48
 READING ON UNIT   11 WITH FORMAT: (FREE)              



                              brook FOR LAYER  48
 READING ON UNIT   11 WITH FORMAT: (FREE)              



              HYD. COND. ALONG ROWS FOR LAYER  49
 READING ON UNIT   11 WITH FORMAT: (FREE)              



                VERTICAL HYD. COND. FOR LAYER  49
 READING ON UNIT   11 WITH FORMAT: (FREE)              



                   SPECIFIC STORAGE FOR LAYER  49
 READING ON UNIT   11 WITH FORMAT: (FREE)              



                     SPECIFIC YIELD FOR LAYER  49
 READING ON UNIT   11 WITH FORMAT: (FREE)              



                              alpha FOR LAYER  49
 READING ON UNIT   11 WITH FORMAT: (FREE)              



                               beta FOR LAYER  49
 READING ON UNIT   11 WITH FORMAT: (FREE)              



                                 sr FOR LAYER  49
 READING ON UNIT   11 WITH FORMAT: (FREE)              



                              brook FOR LAYER  49
 READING ON UNIT   11 WITH FORMAT: (FREE)              



              HYD. COND. ALONG ROWS FOR LAYER  50
 READING ON UNIT   11 WITH FORMAT: (FREE)              



                VERTICAL HYD. COND. FOR LAYER  50
 READING ON UNIT   11 WITH FORMAT: (FREE)              



                   SPECIFIC STORAGE FOR LAYER  50
 READING ON UNIT   11 WITH FORMAT: (FREE)              



                     SPECIFIC YIELD FOR LAYER  50
 READING ON UNIT   11 WITH FORMAT: (FREE)              



                              alpha FOR LAYER  50
 READING ON UNIT   11 WITH FORMAT: (FREE)              



                               beta FOR LAYER  50
 READING ON UNIT   11 WITH FORMAT: (FREE)              



                                 sr FOR LAYER  50
 READING ON UNIT   11 WITH FORMAT: (FREE)              



                              brook FOR LAYER  50
 READING ON UNIT   11 WITH FORMAT: (FREE)              

 DRN -- DRAIN PACKAGE, VERSION 7, 5/2/2005 INPUT READ FROM UNIT   13
 # MODFLOW-USGs Drain Package
 No named parameters
 MAXIMUM OF   1000 ACTIVE DRAINS AT ONE TIME
 CELL-BY-CELL FLOWS WILL BE SAVED ON UNIT   50


     0 Drain parameters

 RCH -- RECHARGE PACKAGE, VERSION 7, 5/2/2005 INPUT READ FROM UNIT   18
 # MODFLOW-USGs Recharge Package
 No named parameters
 OPTION 3 -- RECHARGE TO HIGHEST ACTIVE NODE IN EACH VERTICAL COLUMN
 CELL-BY-CELL FLOWS WILL BE SAVED ON UNIT   50


     0 Recharge parameters

 SMS -- SPARSE MATRIX SOLVER PACKAGE, VERSION 7, 5/2/2005
         INPUT READ FROM UNIT 19
 No named parameters
  ALL SOLVER INPUT DATA WILL BE READ FROM THE SOLVER INPUT FILE. 
 ONLY ACTIVE NODES WILL BE PASSED TO THE SOLVER
 BOTTOM DAMPING APPLIED TO EACH LINEAR SOLUTION
 OUTER ITERATION CONVERGENCE CRITERION (HCLOSE) =    0.100000E-02
 INNER ITERATION CONVERGENCE CRITERION (HICLOSE) =    0.100000E-04
 MAXIMUM NUMBER OF OUTER ITERATIONS (MXITER)     =        20
 MAXIMUM NUMBER OF INNER ITERATIONS (ITER1)      =       600
 SOLVER PRINTOUT INDEX             (IPRSMS)      =         1
 NONLINEAR ITERATION METHOD    (NONLINMETH)      =         1
 LINEAR SOLUTION METHOD           (LINMETH)      =         1
 D-B-D WEIGHT REDUCTION FACTOR      (THETA)      =    0.700000E+00
 D-B-D WEIGHT INCREASE INCREMENT    (KAPPA)      =    0.700000E-01
 D-B-D PREVIOUS HISTORY FACTOR      (GAMMA)      =    0.100000E+00
 MOMENTUM TERM                  (AMOMENTUM)      =    0.000000E+00
 MAXIMUM NUMBER OF BACKTRACKS    (NUMTRACK)      =       200
 BACKTRACKING TOLERANCE FACTOR       (BTOL)      =    0.110000E+01
 BACKTRACKING REDUCTION FACTOR     (BREDUC)      =    0.200000E+00
 BACKTRACKING RESIDUAL LIMIT      (RES_LIM)      =    0.100000E+01
 TRUNCATED NEWTON FLAG     (ITRUNCNEWTON)      =         0
 ***Newton Linearization will be used***
 
 ***XMD linear solver will be used***
 XMD -- LINEAR SOLUTION BY XMD PACKAGE VERSION 1.30
     BY MOTOMU IBARAKI, OHIO STATE UNIVERSITY, COLOMBUS, OH
                 INPUT READ FROM UNIT 19
 ACCELERATION METHOD                    (IACL) =         2
 EQUATION ORDERING FLAG               (NORDER) =         0
 LEVEL OF FILL                         (LEVEL) =         2
 MAXIMUM NUMBER OF ORTHOGONALIZATIONS  (NORTH) =        14
 INDEX FOR USING REDUCED SYSTEM      (IREDSYS) =         0
 RESID. REDUCTION CONVERGE CRITERION  (RRCTOL) =  0.000000E+00
 INDEX FOR USING DROP TOLERANCE     (IDROPTOL) =         1
 DROP TOLERANCE VALUE                 ((EPSRN) =  0.100000E-02
 

 OUTPUT CONTROL FOR STRESS PERIOD        1
    DELTAT   0.100000E-02
    TMINAT   0.100000E-06
    TMAXAT    1000.00    
    TADJAT    1.50000    
    TCUTAT    2.00000    
    SAVE HEAD FOR ALL LAYERS
    SAVE BUDGET
    PRINT BUDGET
    SAVE DRAWDOWN FOR ALL LAYERS
1
                            STRESS PERIOD NO.    1, LENGTH =   100000.0    
                            -----------------------------------------------

                            INITIAL TIME STEP SIZE =  0.1000000E-02

 DRN -- DRAIN PACKAGE, VERSION 7, 5/2/2005 INPUT READ FROM UNIT   13

 DRAIN NO.      NODE         DRAIN EL.  CONDUCTANCE         
 -----------------------------------------------------------
        1            1      0.5000E-01       1000.    
        2            2      0.1500           1000.    
        3            3      0.2500           1000.    
        4            4      0.3500           1000.    
        5            5      0.4500           1000.    
        6            6      0.5500           1000.    
        7            7      0.6500           1000.    
        8            8      0.7500           1000.    
        9            9      0.8500           1000.    
       10           10      0.9500           1000.    
       11           11       1.050           1000.    
       12           12       1.150           1000.    
       13           13       1.250           1000.    
       14           14       1.350           1000.    
       15           15       1.450           1000.    
       16           16       1.550           1000.    
       17           17       1.650           1000.    
       18           18       1.750           1000.    
       19           19       1.850           1000.    
       20           20       1.950           1000.    
       21           21       2.050           1000.    
       22           22       2.150           1000.    
       23           23       2.250           1000.    
       24           24       2.350           1000.    
       25           25       2.450           1000.    
       26           26       2.550           1000.    
       27           27       2.650           1000.    
       28           28       2.750           1000.    
       29           29       2.850           1000.    
       30           30       2.950           1000.    
       31           31       3.050           1000.    
       32           32       3.150           1000.    
       33           33       3.250           1000.    
       34           34       3.350           1000.    
       35           35       3.450           1000.    
       36           36       3.550           1000.    
       37           37       3.650           1000.    
       38           38       3.750           1000.    
       39           39       3.850           1000.    
       40           40       3.950           1000.    
       41           41       4.050           1000.    
       42           42       4.150           1000.    
       43           43       4.250           1000.    
       44           44       4.350           1000.    
       45           45       4.450           1000.    
       46           46       4.550           1000.    
       47           47       4.650           1000.    
       48           48       4.750           1000.    
       49           49       4.850           1000.    
       50           50       4.950           1000.    
       51           51       5.050           1000.    
       52           52       5.150           1000.    
       53           53       5.250           1000.    
       54           54       5.350           1000.    
       55           55       5.450           1000.    
       56           56       5.550           1000.    
       57           57       5.650           1000.    
       58           58       5.750           1000.    
       59           59       5.850           1000.    
       60           60       5.950           1000.    
       61           61       6.050           1000.    
       62           62       6.150           1000.    
       63           63       6.250           1000.    
       64           64       6.350           1000.    
       65           65       6.450           1000.    
       66           66       6.550           1000.    
       67           67       6.650           1000.    
       68           68       6.750           1000.    
       69           69       6.850           1000.    
       70           70       6.950           1000.    
       71           71       7.050           1000.    
       72           72       7.150           1000.    
       73           73       7.250           1000.    
[...]
                    SECONDS     MINUTES      HOURS       DAYS        YEARS
                    -----------------------------------------------------------
   TIME STEP LENGTH 3.15576E+10 5.25960E+08 8.76600E+06 3.65250E+05  1000.0    
 STRESS PERIOD TIME 2.98774E+12 4.97957E+10 8.29929E+08 3.45804E+07  94676.    
         TOTAL TIME 2.98774E+12 4.97957E+10 8.29929E+08 3.45804E+07  94676.    
1
 -------------------------------------------------------------------------------------
 
 SOLVING FOR HEAD 

 Outer-Iteration  Inner-Iteration  Backtracking  Number of        Incoming       Outgoing      Cutoff     Maximum Head Change      Maximum Head Change
     Number           Count           Flag       Backtracks       Residual       Residual      Residual            Value               Location
        1                             0             0          0.722240E-09     0.722240E-09   -1.00000    
        1                1                                                                                       0.328422E-06              10985           GWF-node number
     1 CALLS TO SPARSE MATRIX SOLVER PACKAGE  IN FLOW TIME STEP     359 STRESS PERIOD       1

 TOTAL OF       1OUTER ITERATIONS
  MAXIMUM CHANGE FOR EACH ITERATION:
   MAX. CHANGE        NODE  MAX. CHANGE        NODE  MAX. CHANGE        NODE  MAX. CHANGE        NODE  MAX. CHANGE        NODE
 ------------------------------------------------------------------------------------------------------------------------------------
   0.32842E-06,      10985
1
  VOLUMETRIC BUDGET FOR ENTIRE MODEL AT END OF TIME STEP     359 IN STRESS PERIOD       1
  ---------------------------------------------------------------------------------------

     CUMULATIVE VOLUMES      L**3       RATES FOR THIS TIME STEP      L**3/T
     ------------------                 ------------------------

           IN:                                      IN:
           ---                                      ---
             STORAGE =       3.8378E-04               STORAGE =       3.8848E-15
       CONSTANT HEAD =           0.0000         CONSTANT HEAD =           0.0000
              DRAINS =           0.0000                DRAINS =           0.0000
            RECHARGE =    47837938.6507              RECHARGE =         500.0000

            TOTAL IN =    47837938.6511              TOTAL IN =         500.0000

          OUT:                                     OUT:
          ----                                     ----
             STORAGE =         914.3602               STORAGE =       3.7633E-09
       CONSTANT HEAD =           0.0000         CONSTANT HEAD =           0.0000
              DRAINS =    47836538.6352                DRAINS =         499.9951
            RECHARGE =           0.0000              RECHARGE =           0.0000

           TOTAL OUT =    47837452.9954             TOTAL OUT =         499.9951

            IN - OUT =         485.6557              IN - OUT =       4.8535E-03

 PERCENT DISCREPANCY =           0.00     PERCENT DISCREPANCY =           0.00






          TIME SUMMARY AT END OF TIME STEP       359 IN STRESS PERIOD         1
                    SECONDS     MINUTES      HOURS       DAYS        YEARS
                    -----------------------------------------------------------
   TIME STEP LENGTH 3.15576E+10 5.25960E+08 8.76600E+06 3.65250E+05  1000.0    
 STRESS PERIOD TIME 3.01930E+12 5.03217E+10 8.38695E+08 3.49456E+07  95676.    
         TOTAL TIME 3.01930E+12 5.03217E+10 8.38695E+08 3.49456E+07  95676.    
1
 -------------------------------------------------------------------------------------
 
 SOLVING FOR HEAD 

 Outer-Iteration  Inner-Iteration  Backtracking  Number of        Incoming       Outgoing      Cutoff     Maximum Head Change      Maximum Head Change
     Number           Count           Flag       Backtracks       Residual       Residual      Residual            Value               Location
        1                             0             0          0.715372E-09     0.715372E-09   -1.00000    
        1                1                                                                                       0.352682E-06              10000           GWF-node number
     1 CALLS TO SPARSE MATRIX SOLVER PACKAGE  IN FLOW TIME STEP     360 STRESS PERIOD       1

 TOTAL OF       1OUTER ITERATIONS
  MAXIMUM CHANGE FOR EACH ITERATION:
   MAX. CHANGE        NODE  MAX. CHANGE        NODE  MAX. CHANGE        NODE  MAX. CHANGE        NODE  MAX. CHANGE        NODE
 ------------------------------------------------------------------------------------------------------------------------------------
   0.35268E-06,      10000
1
  VOLUMETRIC BUDGET FOR ENTIRE MODEL AT END OF TIME STEP     360 IN STRESS PERIOD       1
  ---------------------------------------------------------------------------------------

     CUMULATIVE VOLUMES      L**3       RATES FOR THIS TIME STEP      L**3/T
     ------------------                 ------------------------

           IN:                                      IN:
           ---                                      ---
             STORAGE =       3.8378E-04               STORAGE =       3.9851E-15
       CONSTANT HEAD =           0.0000         CONSTANT HEAD =           0.0000
              DRAINS =           0.0000                DRAINS =           0.0000
            RECHARGE =    48337938.6507              RECHARGE =         500.0000

            TOTAL IN =    48337938.6511              TOTAL IN =         500.0000

          OUT:                                     OUT:
          ----                                     ----
             STORAGE =         914.3602               STORAGE =       3.7653E-09
       CONSTANT HEAD =           0.0000         CONSTANT HEAD =           0.0000
              DRAINS =    48336533.7854                DRAINS =         499.9952
            RECHARGE =           0.0000              RECHARGE =           0.0000

           TOTAL OUT =    48337448.1456             TOTAL OUT =         499.9952

            IN - OUT =         490.5055              IN - OUT =       4.8499E-03

 PERCENT DISCREPANCY =           0.00     PERCENT DISCREPANCY =           0.00






          TIME SUMMARY AT END OF TIME STEP       360 IN STRESS PERIOD         1
                    SECONDS     MINUTES      HOURS       DAYS        YEARS
                    -----------------------------------------------------------
   TIME STEP LENGTH 3.15576E+10 5.25960E+08 8.76600E+06 3.65250E+05  1000.0    
 STRESS PERIOD TIME 3.05086E+12 5.08476E+10 8.47461E+08 3.53109E+07  96676.    
         TOTAL TIME 3.05086E+12 5.08476E+10 8.47461E+08 3.53109E+07  96676.    
1
 -------------------------------------------------------------------------------------
 
 SOLVING FOR HEAD 

 Outer-Iteration  Inner-Iteration  Backtracking  Number of        Incoming       Outgoing      Cutoff     Maximum Head Change      Maximum Head Change
     Number           Count           Flag       Backtracks       Residual       Residual      Residual            Value               Location
        1                             0             0          0.720870E-09     0.720870E-09   -1.00000    
        1                1                                                                                       0.328239E-06              10985           GWF-node number
     1 CALLS TO SPARSE MATRIX SOLVER PACKAGE  IN FLOW TIME STEP     361 STRESS PERIOD       1

 TOTAL OF       1OUTER ITERATIONS
  MAXIMUM CHANGE FOR EACH ITERATION:
   MAX. CHANGE        NODE  MAX. CHANGE        NODE  MAX. CHANGE        NODE  MAX. CHANGE        NODE  MAX. CHANGE        NODE
 ------------------------------------------------------------------------------------------------------------------------------------
   0.32824E-06,      10985
1
  VOLUMETRIC BUDGET FOR ENTIRE MODEL AT END OF TIME STEP     361 IN STRESS PERIOD       1
  ---------------------------------------------------------------------------------------

     CUMULATIVE VOLUMES      L**3       RATES FOR THIS TIME STEP      L**3/T
     ------------------                 ------------------------

           IN:                                      IN:
           ---                                      ---
             STORAGE =       3.8378E-04               STORAGE =       4.1883E-15
       CONSTANT HEAD =           0.0000         CONSTANT HEAD =           0.0000
              DRAINS =           0.0000                DRAINS =           0.0000
            RECHARGE =    48837938.6507              RECHARGE =         500.0000

            TOTAL IN =    48837938.6511              TOTAL IN =         500.0000

          OUT:                                     OUT:
          ----                                     ----
             STORAGE =         914.3602               STORAGE =       3.7577E-09
       CONSTANT HEAD =           0.0000         CONSTANT HEAD =           0.0000
              DRAINS =    48836528.9391                DRAINS =         499.9952
            RECHARGE =           0.0000              RECHARGE =           0.0000

           TOTAL OUT =    48837443.2993             TOTAL OUT =         499.9952

            IN - OUT =         495.3518              IN - OUT =       4.8463E-03

 PERCENT DISCREPANCY =           0.00     PERCENT DISCREPANCY =           0.00






          TIME SUMMARY AT END OF TIME STEP       361 IN STRESS PERIOD         1
                    SECONDS     MINUTES      HOURS       DAYS        YEARS
                    -----------------------------------------------------------
   TIME STEP LENGTH 3.15576E+10 5.25960E+08 8.76600E+06 3.65250E+05  1000.0    
 STRESS PERIOD TIME 3.08242E+12 5.13736E+10 8.56227E+08 3.56761E+07  97676.    
         TOTAL TIME 3.08242E+12 5.13736E+10 8.56227E+08 3.56761E+07  97676.    
1
 -------------------------------------------------------------------------------------
 
 SOLVING FOR HEAD 

 Outer-Iteration  Inner-Iteration  Backtracking  Number of        Incoming       Outgoing      Cutoff     Maximum Head Change      Maximum Head Change
     Number           Count           Flag       Backtracks       Residual       Residual      Residual            Value               Location
        1                             0             0          0.713914E-09     0.713914E-09   -1.00000    
        1                1                                                                                       0.352418E-06              10000           GWF-node number
     1 CALLS TO SPARSE MATRIX SOLVER PACKAGE  IN FLOW TIME STEP     362 STRESS PERIOD       1

 TOTAL OF       1OUTER ITERATIONS
  MAXIMUM CHANGE FOR EACH ITERATION:
   MAX. CHANGE        NODE  MAX. CHANGE        NODE  MAX. CHANGE        NODE  MAX. CHANGE        NODE  MAX. CHANGE        NODE
 ------------------------------------------------------------------------------------------------------------------------------------
   0.35242E-06,      10000
1
  VOLUMETRIC BUDGET FOR ENTIRE MODEL AT END OF TIME STEP     362 IN STRESS PERIOD       1
  ---------------------------------------------------------------------------------------

     CUMULATIVE VOLUMES      L**3       RATES FOR THIS TIME STEP      L**3/T
     ------------------                 ------------------------

           IN:                                      IN:
           ---                                      ---
             STORAGE =       3.8378E-04               STORAGE =       4.3367E-15
       CONSTANT HEAD =           0.0000         CONSTANT HEAD =           0.0000
              DRAINS =           0.0000                DRAINS =           0.0000
            RECHARGE =    49337938.6507              RECHARGE =         500.0000

            TOTAL IN =    49337938.6511              TOTAL IN =         500.0000

          OUT:                                     OUT:
          ----                                     ----
             STORAGE =         914.3602               STORAGE =       3.7598E-09
       CONSTANT HEAD =           0.0000         CONSTANT HEAD =           0.0000
              DRAINS =    49336524.0965                DRAINS =         499.9952
            RECHARGE =           0.0000              RECHARGE =           0.0000

           TOTAL OUT =    49337438.4567             TOTAL OUT =         499.9952

            IN - OUT =         500.1944              IN - OUT =       4.8426E-03

 PERCENT DISCREPANCY =           0.00     PERCENT DISCREPANCY =           0.00






          TIME SUMMARY AT END OF TIME STEP       362 IN STRESS PERIOD         1
                    SECONDS     MINUTES      HOURS       DAYS        YEARS
                    -----------------------------------------------------------
   TIME STEP LENGTH 3.15576E+10 5.25960E+08 8.76600E+06 3.65250E+05  1000.0    
 STRESS PERIOD TIME 3.11397E+12 5.18996E+10 8.64993E+08 3.60414E+07  98676.    
         TOTAL TIME 3.11397E+12 5.18996E+10 8.64993E+08 3.60414E+07  98676.    
1
 -------------------------------------------------------------------------------------
 
 SOLVING FOR HEAD 

 Outer-Iteration  Inner-Iteration  Backtracking  Number of        Incoming       Outgoing      Cutoff     Maximum Head Change      Maximum Head Change
     Number           Count           Flag       Backtracks       Residual       Residual      Residual            Value               Location
        1                             0             0          0.719509E-09     0.719509E-09   -1.00000    
        1                1                                                                                       0.328009E-06              10985           GWF-node number
     1 CALLS TO SPARSE MATRIX SOLVER PACKAGE  IN FLOW TIME STEP     363 STRESS PERIOD       1

 TOTAL OF       1OUTER ITERATIONS
  MAXIMUM CHANGE FOR EACH ITERATION:
   MAX. CHANGE        NODE  MAX. CHANGE        NODE  MAX. CHANGE        NODE  MAX. CHANGE        NODE  MAX. CHANGE        NODE
 ------------------------------------------------------------------------------------------------------------------------------------
   0.32801E-06,      10985
1
  VOLUMETRIC BUDGET FOR ENTIRE MODEL AT END OF TIME STEP     363 IN STRESS PERIOD       1
  ---------------------------------------------------------------------------------------

     CUMULATIVE VOLUMES      L**3       RATES FOR THIS TIME STEP      L**3/T
     ------------------                 ------------------------

           IN:                                      IN:
           ---                                      ---
             STORAGE =       3.8378E-04               STORAGE =       4.5703E-15
       CONSTANT HEAD =           0.0000         CONSTANT HEAD =           0.0000
              DRAINS =           0.0000                DRAINS =           0.0000
            RECHARGE =    49837938.6507              RECHARGE =         500.0000

            TOTAL IN =    49837938.6511              TOTAL IN =         500.0000

          OUT:                                     OUT:
          ----                                     ----
             STORAGE =         914.3602               STORAGE =       3.7522E-09
       CONSTANT HEAD =           0.0000         CONSTANT HEAD =           0.0000
              DRAINS =    49836519.2574                DRAINS =         499.9952
            RECHARGE =           0.0000              RECHARGE =           0.0000

           TOTAL OUT =    49837433.6176             TOTAL OUT =         499.9952

            IN - OUT =         505.0335              IN - OUT =       4.8391E-03

 PERCENT DISCREPANCY =           0.00     PERCENT DISCREPANCY =           0.00






          TIME SUMMARY AT END OF TIME STEP       363 IN STRESS PERIOD         1
                    SECONDS     MINUTES      HOURS       DAYS        YEARS
                    -----------------------------------------------------------
   TIME STEP LENGTH 3.15576E+10 5.25960E+08 8.76600E+06 3.65250E+05  1000.0    
 STRESS PERIOD TIME 3.14553E+12 5.24255E+10 8.73759E+08 3.64066E+07  99676.    
         TOTAL TIME 3.14553E+12 5.24255E+10 8.73759E+08 3.64066E+07  99676.    
1
 -------------------------------------------------------------------------------------
 
 SOLVING FOR HEAD 

 Outer-Iteration  Inner-Iteration  Backtracking  Number of        Incoming       Outgoing      Cutoff     Maximum Head Change      Maximum Head Change
     Number           Count           Flag       Backtracks       Residual       Residual      Residual            Value               Location
        1                             0             0          0.712465E-09     0.712465E-09   -1.00000    
        1                1                                                                                       0.352107E-06              10000           GWF-node number
     1 CALLS TO SPARSE MATRIX SOLVER PACKAGE  IN FLOW TIME STEP     364 STRESS PERIOD       1

 TOTAL OF       1OUTER ITERATIONS
  MAXIMUM CHANGE FOR EACH ITERATION:
   MAX. CHANGE        NODE  MAX. CHANGE        NODE  MAX. CHANGE        NODE  MAX. CHANGE        NODE  MAX. CHANGE        NODE
 ------------------------------------------------------------------------------------------------------------------------------------
   0.35211E-06,      10000
 UBUDSVU SAVING "         STORAGE" ON UNIT  50 AT TIME STEP    364, STRESS PERIOD      1
 UBUDSVU SAVING "   CONSTANT HEAD" ON UNIT  50 AT TIME STEP    364, STRESS PERIOD      1
 UBUDSVU SAVING "   FLOW JA FACE " ON UNIT  50 AT TIME STEP    364, STRESS PERIOD      1
 UBUDSVU SAVING "          DRAINS" ON UNIT  50 AT TIME STEP    364, STRESS PERIOD      1
 UBUDSVU SAVING "        RECHARGE" ON UNIT  50 AT TIME STEP    364, STRESS PERIOD      1

 HEAD WILL BE SAVED ON UNIT       30 AT END OF TIME STEP      364, STRESS PERIOD        1

 DRAWDOWN WILL BE SAVED ON UNIT   31 AT END OF TIME STEP 364, STRESS PERIOD    1
1
  VOLUMETRIC BUDGET FOR ENTIRE MODEL AT END OF TIME STEP     364 IN STRESS PERIOD       1
  ---------------------------------------------------------------------------------------

     CUMULATIVE VOLUMES      L**3       RATES FOR THIS TIME STEP      L**3/T
     ------------------                 ------------------------

           IN:                                      IN:
           ---                                      ---
             STORAGE =       3.8378E-04               STORAGE =       1.4366E-14
       CONSTANT HEAD =           0.0000         CONSTANT HEAD =           0.0000
              DRAINS =           0.0000                DRAINS =           0.0000
            RECHARGE =    50000000.0000              RECHARGE =         500.0000

            TOTAL IN =    50000000.0004              TOTAL IN =         500.0000

          OUT:                                     OUT:
          ----                                     ----
             STORAGE =         914.3602               STORAGE =       1.1583E-08
       CONSTANT HEAD =           0.0000         CONSTANT HEAD =           0.0000
              DRAINS =    49998579.0395                DRAINS =         499.9952
            RECHARGE =           0.0000              RECHARGE =           0.0000

           TOTAL OUT =    49999493.3996             TOTAL OUT =         499.9952

            IN - OUT =         506.6007              IN - OUT =       4.8354E-03

 PERCENT DISCREPANCY =           0.00     PERCENT DISCREPANCY =           0.00






          TIME SUMMARY AT END OF TIME STEP       364 IN STRESS PERIOD         1
                    SECONDS     MINUTES      HOURS       DAYS        YEARS
                    -----------------------------------------------------------
   TIME STEP LENGTH 1.02285E+10 1.70476E+08 2.84126E+06 1.18386E+05  324.12    
 STRESS PERIOD TIME 3.15576E+12 5.25960E+10 8.76600E+08 3.65250E+07 1.00000E+05
         TOTAL TIME 3.15576E+12 5.25960E+10 8.76600E+08 3.65250E+07 1.00000E+05
1

 Run end date and time (yyyy/mm/dd hh:mm:ss): 2023/12/11 14:19:40
 Elapsed run time: 13 Minutes,  5.205 Seconds

