                                  USG-TRANSPORT USG-TRANSPORT 
       FURTHER  DEVELOPMENTS BASED ON MODFLOW-USG
                      VERSION USG-TRANSPORT VERSION 2.02.0

 LIST FILE: swf1.lst
                         UNIT   12

 OPENING swf1.bas
 FILE TYPE:BAS6   UNIT    1   STATUS:OLD    
 FORMAT:FORMATTED              ACCESS:SEQUENTIAL          

 OPENING swf1.sms
 FILE TYPE:SMS   UNIT   19   STATUS:OLD    
 FORMAT:FORMATTED              ACCESS:SEQUENTIAL          

 OPENING swf1.dis
 FILE TYPE:DISU   UNIT   29   STATUS:OLD    
 FORMAT:FORMATTED              ACCESS:SEQUENTIAL          

 OPENING swf1.oc
 FILE TYPE:OC   UNIT   22   STATUS:OLD    
 FORMAT:FORMATTED              ACCESS:SEQUENTIAL          

 OPENING swf1.chd
 FILE TYPE:CHD   UNIT   23   STATUS:OLD    
 FORMAT:FORMATTED              ACCESS:SEQUENTIAL          

 OPENING swf1.lpf
 FILE TYPE:LPF   UNIT   11   STATUS:OLD    
 FORMAT:FORMATTED              ACCESS:SEQUENTIAL          

 OPENING swf1.cln
 FILE TYPE:CLN   UNIT   26   STATUS:OLD    
 FORMAT:FORMATTED              ACCESS:SEQUENTIAL          

 OPENING swf1.gwf.cbb
 FILE TYPE:DATA(BINARY)   UNIT   50   STATUS:UNKNOWN
 FORMAT:UNFORMATTED            ACCESS:STREAM              

 OPENING swf1.gwf.hds
 FILE TYPE:DATA(BINARY)   UNIT   30   STATUS:UNKNOWN
 FORMAT:UNFORMATTED            ACCESS:STREAM              

 OPENING swf1.gwf.ddn
 FILE TYPE:DATA(BINARY)   UNIT   31   STATUS:UNKNOWN
 FORMAT:UNFORMATTED            ACCESS:STREAM              

 OPENING swf1.cln.cbb
 FILE TYPE:DATA(BINARY)   UNIT  144   STATUS:UNKNOWN
 FORMAT:UNFORMATTED            ACCESS:STREAM              

 OPENING swf1.cln.hds
 FILE TYPE:DATA(BINARY)   UNIT  145   STATUS:UNKNOWN
 FORMAT:UNFORMATTED            ACCESS:STREAM              

 OPENING swf1.cln.ddn
 FILE TYPE:DATA(BINARY)   UNIT  146   STATUS:UNKNOWN
 FORMAT:UNFORMATTED            ACCESS:STREAM              

 BAS -- BASIC PACKAGEUSG-TRANSPORT USG-TRANSPORT VERSION 2.02.0             INPUT READ FROM UNIT    1
 
 # MODFLOW-USGs Basic Package                                                    
 # MODFLOW Data Set Created by Groundwater Vistas                                
 #
 THE FREE FORMAT OPTION HAS BEEN SELECTED
 THE UNSTRUCTURED GRID OPTION HAS BEEN SELECTED

 DIS -- UNSTRUCTURED GRID DISCRETIZATION PACKAGE, VERSION 1 : 5/17/2010 - INPUT READ FROM UNIT   29
        101 NODES         1 NLAY       301 NJAG  VERT. SUBDISCRETIZATION INDEX, IVSD = -1
 INDEX FOR INPUT OF UNSTRUCTURED, FINITE-VOLUME CONNECTIVITY INFORMATION, IDSYMRD =   0
    1 STRESS PERIOD(S) IN SIMULATION
 MODEL TIME UNIT IS SECONDS
 MODEL LENGTH UNIT IS METERS
  Confining bed flag for each layer:
   0

 CLN -- CONNECTED LINE NETWORK DISCRETIZATION PROCESS, VERSION 1, 3/3/2012 INPUT READ FROM UNIT   26
 FLAG (0) OR MAXIMUM NUMBER OF LINEAR NODES (NCLN) =      0
 FLAG (-VE) OR NUMBER OF LINEAR NODES (+VE) (ICLNNDS) =    101
 NUMBER OF LINEAR NODE TO MATRIX GRID CONNECTIONS (NCLNGWC) =    101

 CELL-BY-CELL FLOWS WILL BE SAVED ON UNIT   144(FLAG ICLNCB IS GREATER THAN ZERO)
 CLN HEAD OUTPUT WILL BE SAVED ON UNIT  145(FLAG ICLNHD IS GREATER THAN ZERO)
 CLN DDN OUTPUT WILL BE SAVED ON UNIT  146(FLAG ICLNDD IS GREATER THAN ZERO)
 CLN IBOUND OUTPUT WILL NOT BE SAVED OR PRINTED (FLAG ICLNIB IS EQUAL TO ZERO)
 NUMBER OF RECTANGULAR SECTION GEOMETRIES =          1



                                 IA
 READING ON UNIT   26 WITH FORMAT: (FREE)              



                                 JA
 READING ON UNIT   26 WITH FORMAT: (FREE)              

                     CONNECTED LINE NETWORK INFORMATION
                    ----------------------------------------
     CLN-NODE NO. CLNTYP ORIENTATION  CLN LENGTH    BOT ELEVATION         FANGLE         IFLIN           ICCWADI
     -----------  ------ ----------- -----------    -------------    -----------        ------    -------
              1      2          1    0.100000E+01    0.200000E+01    0.000000E+00         -4          0
              2      2          1    0.100000E+01    0.199000E+01    0.000000E+00         -4          0
              3      2          1    0.100000E+01    0.198000E+01    0.000000E+00         -4          0
              4      2          1    0.100000E+01    0.197000E+01    0.000000E+00         -4          0
              5      2          1    0.100000E+01    0.196000E+01    0.000000E+00         -4          0
              6      2          1    0.100000E+01    0.195000E+01    0.000000E+00         -4          0
              7      2          1    0.100000E+01    0.194000E+01    0.000000E+00         -4          0
              8      2          1    0.100000E+01    0.193000E+01    0.000000E+00         -4          0
              9      2          1    0.100000E+01    0.192000E+01    0.000000E+00         -4          0
             10      2          1    0.100000E+01    0.191000E+01    0.000000E+00         -4          0
             11      2          1    0.100000E+01    0.190000E+01    0.000000E+00         -4          0
             12      2          1    0.100000E+01    0.189000E+01    0.000000E+00         -4          0
             13      2          1    0.100000E+01    0.188000E+01    0.000000E+00         -4          0
             14      2          1    0.100000E+01    0.187000E+01    0.000000E+00         -4          0
             15      2          1    0.100000E+01    0.186000E+01    0.000000E+00         -4          0
             16      2          1    0.100000E+01    0.185000E+01    0.000000E+00         -4          0
             17      2          1    0.100000E+01    0.184000E+01    0.000000E+00         -4          0
             18      2          1    0.100000E+01    0.183000E+01    0.000000E+00         -4          0
             19      2          1    0.100000E+01    0.182000E+01    0.000000E+00         -4          0
             20      2          1    0.100000E+01    0.181000E+01    0.000000E+00         -4          0
             21      2          1    0.100000E+01    0.180000E+01    0.000000E+00         -4          0
             22      2          1    0.100000E+01    0.179000E+01    0.000000E+00         -4          0
             23      2          1    0.100000E+01    0.178000E+01    0.000000E+00         -4          0
             24      2          1    0.100000E+01    0.177000E+01    0.000000E+00         -4          0
             25      2          1    0.100000E+01    0.176000E+01    0.000000E+00         -4          0
             26      2          1    0.100000E+01    0.175000E+01    0.000000E+00         -4          0
             27      2          1    0.100000E+01    0.174000E+01    0.000000E+00         -4          0
             28      2          1    0.100000E+01    0.173000E+01    0.000000E+00         -4          0
             29      2          1    0.100000E+01    0.172000E+01    0.000000E+00         -4          0
             30      2          1    0.100000E+01    0.171000E+01    0.000000E+00         -4          0
             31      2          1    0.100000E+01    0.170000E+01    0.000000E+00         -4          0
             32      2          1    0.100000E+01    0.169000E+01    0.000000E+00         -4          0
             33      2          1    0.100000E+01    0.168000E+01    0.000000E+00         -4          0
             34      2          1    0.100000E+01    0.167000E+01    0.000000E+00         -4          0
             35      2          1    0.100000E+01    0.166000E+01    0.000000E+00         -4          0
             36      2          1    0.100000E+01    0.165000E+01    0.000000E+00         -4          0
             37      2          1    0.100000E+01    0.164000E+01    0.000000E+00         -4          0
             38      2          1    0.100000E+01    0.163000E+01    0.000000E+00         -4          0
             39      2          1    0.100000E+01    0.162000E+01    0.000000E+00         -4          0
             40      2          1    0.100000E+01    0.161000E+01    0.000000E+00         -4          0
             41      2          1    0.100000E+01    0.160000E+01    0.000000E+00         -4          0
             42      2          1    0.100000E+01    0.159000E+01    0.000000E+00         -4          0
             43      2          1    0.100000E+01    0.158000E+01    0.000000E+00         -4          0
             44      2          1    0.100000E+01    0.157000E+01    0.000000E+00         -4          0
             45      2          1    0.100000E+01    0.156000E+01    0.000000E+00         -4          0
             46      2          1    0.100000E+01    0.155000E+01    0.000000E+00         -4          0
             47      2          1    0.100000E+01    0.154000E+01    0.000000E+00         -4          0
             48      2          1    0.100000E+01    0.153000E+01    0.000000E+00         -4          0
             49      2          1    0.100000E+01    0.152000E+01    0.000000E+00         -4          0
             50      2          1    0.100000E+01    0.151000E+01    0.000000E+00         -4          0
             51      2          1    0.100000E+01    0.150000E+01    0.000000E+00         -4          0
             52      2          1    0.100000E+01    0.149000E+01    0.000000E+00         -4          0
             53      2          1    0.100000E+01    0.148000E+01    0.000000E+00         -4          0
             54      2          1    0.100000E+01    0.147000E+01    0.000000E+00         -4          0
             55      2          1    0.100000E+01    0.146000E+01    0.000000E+00         -4          0
             56      2          1    0.100000E+01    0.145000E+01    0.000000E+00         -4          0
             57      2          1    0.100000E+01    0.144000E+01    0.000000E+00         -4          0
             58      2          1    0.100000E+01    0.143000E+01    0.000000E+00         -4          0
             59      2          1    0.100000E+01    0.142000E+01    0.000000E+00         -4          0
             60      2          1    0.100000E+01    0.141000E+01    0.000000E+00         -4          0
             61      2          1    0.100000E+01    0.140000E+01    0.000000E+00         -4          0
             62      2          1    0.100000E+01    0.139000E+01    0.000000E+00         -4          0
             63      2          1    0.100000E+01    0.138000E+01    0.000000E+00         -4          0
             64      2          1    0.100000E+01    0.137000E+01    0.000000E+00         -4          0
             65      2          1    0.100000E+01    0.136000E+01    0.000000E+00         -4          0
             66      2          1    0.100000E+01    0.135000E+01    0.000000E+00         -4          0
             67      2          1    0.100000E+01    0.134000E+01    0.000000E+00         -4          0
             68      2          1    0.100000E+01    0.133000E+01    0.000000E+00         -4          0
             69      2          1    0.100000E+01    0.132000E+01    0.000000E+00         -4          0
             70      2          1    0.100000E+01    0.131000E+01    0.000000E+00         -4          0
             71      2          1    0.100000E+01    0.130000E+01    0.000000E+00         -4          0
             72      2          1    0.100000E+01    0.129000E+01    0.000000E+00         -4          0
             73      2          1    0.100000E+01    0.128000E+01    0.000000E+00         -4          0
             74      2          1    0.100000E+01    0.127000E+01    0.000000E+00         -4          0
             75      2          1    0.100000E+01    0.126000E+01    0.000000E+00         -4          0
             76      2          1    0.100000E+01    0.125000E+01    0.000000E+00         -4          0
             77      2          1    0.100000E+01    0.124000E+01    0.000000E+00         -4          0
             78      2          1    0.100000E+01    0.123000E+01    0.000000E+00         -4          0
             79      2          1    0.100000E+01    0.122000E+01    0.000000E+00         -4          0
             80      2          1    0.100000E+01    0.121000E+01    0.000000E+00         -4          0
             81      2          1    0.100000E+01    0.120000E+01    0.000000E+00         -4          0
             82      2          1    0.100000E+01    0.119000E+01    0.000000E+00         -4          0
             83      2          1    0.100000E+01    0.118000E+01    0.000000E+00         -4          0
             84      2          1    0.100000E+01    0.117000E+01    0.000000E+00         -4          0
             85      2          1    0.100000E+01    0.116000E+01    0.000000E+00         -4          0
             86      2          1    0.100000E+01    0.115000E+01    0.000000E+00         -4          0
             87      2          1    0.100000E+01    0.114000E+01    0.000000E+00         -4          0
             88      2          1    0.100000E+01    0.113000E+01    0.000000E+00         -4          0
             89      2          1    0.100000E+01    0.112000E+01    0.000000E+00         -4          0
             90      2          1    0.100000E+01    0.111000E+01    0.000000E+00         -4          0
             91      2          1    0.100000E+01    0.110000E+01    0.000000E+00         -4          0
             92      2          1    0.100000E+01    0.109000E+01    0.000000E+00         -4          0
             93      2          1    0.100000E+01    0.108000E+01    0.000000E+00         -4          0
             94      2          1    0.100000E+01    0.107000E+01    0.000000E+00         -4          0
             95      2          1    0.100000E+01    0.106000E+01    0.000000E+00         -4          0
             96      2          1    0.100000E+01    0.105000E+01    0.000000E+00         -4          0
             97      2          1    0.100000E+01    0.104000E+01    0.000000E+00         -4          0
             98      2          1    0.100000E+01    0.103000E+01    0.000000E+00         -4          0
             99      2          1    0.100000E+01    0.102000E+01    0.000000E+00         -4          0
            100      2          1    0.100000E+01    0.101000E+01    0.000000E+00         -4          0
            101      2          1    0.100000E+01    0.100000E+01    0.000000E+00         -4          0

                     CLN TO 3-D GRID CONNECTION INFORMATION
                    ----------------------------------------
     F-NODE NO. GW-NODE NO  EQTN. TYPE        FSKIN           FLENG         FANISO   ICGWADI
     ---------- ---------- -----------     ----------- ----------------- ---------------   ----------
              1          1           3    0.100000E-19    0.100000E+01    0.100000E+01         0
              2          2           3    0.100000E-19    0.100000E+01    0.100000E+01         0
              3          3           3    0.100000E-19    0.100000E+01    0.100000E+01         0
              4          4           3    0.100000E-19    0.100000E+01    0.100000E+01         0
              5          5           3    0.100000E-19    0.100000E+01    0.100000E+01         0
              6          6           3    0.100000E-19    0.100000E+01    0.100000E+01         0
              7          7           3    0.100000E-19    0.100000E+01    0.100000E+01         0
              8          8           3    0.100000E-19    0.100000E+01    0.100000E+01         0
              9          9           3    0.100000E-19    0.100000E+01    0.100000E+01         0
             10         10           3    0.100000E-19    0.100000E+01    0.100000E+01         0
             11         11           3    0.100000E-19    0.100000E+01    0.100000E+01         0
             12         12           3    0.100000E-19    0.100000E+01    0.100000E+01         0
             13         13           3    0.100000E-19    0.100000E+01    0.100000E+01         0
             14         14           3    0.100000E-19    0.100000E+01    0.100000E+01         0
             15         15           3    0.100000E-19    0.100000E+01    0.100000E+01         0
             16         16           3    0.100000E-19    0.100000E+01    0.100000E+01         0
             17         17           3    0.100000E-19    0.100000E+01    0.100000E+01         0
             18         18           3    0.100000E-19    0.100000E+01    0.100000E+01         0
             19         19           3    0.100000E-19    0.100000E+01    0.100000E+01         0
             20         20           3    0.100000E-19    0.100000E+01    0.100000E+01         0
             21         21           3    0.100000E-19    0.100000E+01    0.100000E+01         0
             22         22           3    0.100000E-19    0.100000E+01    0.100000E+01         0
             23         23           3    0.100000E-19    0.100000E+01    0.100000E+01         0
             24         24           3    0.100000E-19    0.100000E+01    0.100000E+01         0
             25         25           3    0.100000E-19    0.100000E+01    0.100000E+01         0
             26         26           3    0.100000E-19    0.100000E+01    0.100000E+01         0
             27         27           3    0.100000E-19    0.100000E+01    0.100000E+01         0
             28         28           3    0.100000E-19    0.100000E+01    0.100000E+01         0
             29         29           3    0.100000E-19    0.100000E+01    0.100000E+01         0
             30         30           3    0.100000E-19    0.100000E+01    0.100000E+01         0
             31         31           3    0.100000E-19    0.100000E+01    0.100000E+01         0
             32         32           3    0.100000E-19    0.100000E+01    0.100000E+01         0
             33         33           3    0.100000E-19    0.100000E+01    0.100000E+01         0
             34         34           3    0.100000E-19    0.100000E+01    0.100000E+01         0
             35         35           3    0.100000E-19    0.100000E+01    0.100000E+01         0
             36         36           3    0.100000E-19    0.100000E+01    0.100000E+01         0
             37         37           3    0.100000E-19    0.100000E+01    0.100000E+01         0
             38         38           3    0.100000E-19    0.100000E+01    0.100000E+01         0
             39         39           3    0.100000E-19    0.100000E+01    0.100000E+01         0
             40         40           3    0.100000E-19    0.100000E+01    0.100000E+01         0
             41         41           3    0.100000E-19    0.100000E+01    0.100000E+01         0
             42         42           3    0.100000E-19    0.100000E+01    0.100000E+01         0
             43         43           3    0.100000E-19    0.100000E+01    0.100000E+01         0
             44         44           3    0.100000E-19    0.100000E+01    0.100000E+01         0
             45         45           3    0.100000E-19    0.100000E+01    0.100000E+01         0
             46         46           3    0.100000E-19    0.100000E+01    0.100000E+01         0
             47         47           3    0.100000E-19    0.100000E+01    0.100000E+01         0
             48         48           3    0.100000E-19    0.100000E+01    0.100000E+01         0
             49         49           3    0.100000E-19    0.100000E+01    0.100000E+01         0
             50         50           3    0.100000E-19    0.100000E+01    0.100000E+01         0
             51         51           3    0.100000E-19    0.100000E+01    0.100000E+01         0
             52         52           3    0.100000E-19    0.100000E+01    0.100000E+01         0
             53         53           3    0.100000E-19    0.100000E+01    0.100000E+01         0
             54         54           3    0.100000E-19    0.100000E+01    0.100000E+01         0
             55         55           3    0.100000E-19    0.100000E+01    0.100000E+01         0
             56         56           3    0.100000E-19    0.100000E+01    0.100000E+01         0
             57         57           3    0.100000E-19    0.100000E+01    0.100000E+01         0
             58         58           3    0.100000E-19    0.100000E+01    0.100000E+01         0
             59         59           3    0.100000E-19    0.100000E+01    0.100000E+01         0
             60         60           3    0.100000E-19    0.100000E+01    0.100000E+01         0
             61         61           3    0.100000E-19    0.100000E+01    0.100000E+01         0
             62         62           3    0.100000E-19    0.100000E+01    0.100000E+01         0
             63         63           3    0.100000E-19    0.100000E+01    0.100000E+01         0
             64         64           3    0.100000E-19    0.100000E+01    0.100000E+01         0
             65         65           3    0.100000E-19    0.100000E+01    0.100000E+01         0
             66         66           3    0.100000E-19    0.100000E+01    0.100000E+01         0
             67         67           3    0.100000E-19    0.100000E+01    0.100000E+01         0
             68         68           3    0.100000E-19    0.100000E+01    0.100000E+01         0
             69         69           3    0.100000E-19    0.100000E+01    0.100000E+01         0
             70         70           3    0.100000E-19    0.100000E+01    0.100000E+01         0
             71         71           3    0.100000E-19    0.100000E+01    0.100000E+01         0
             72         72           3    0.100000E-19    0.100000E+01    0.100000E+01         0
             73         73           3    0.100000E-19    0.100000E+01    0.100000E+01         0
             74         74           3    0.100000E-19    0.100000E+01    0.100000E+01         0
             75         75           3    0.100000E-19    0.100000E+01    0.100000E+01         0
             76         76           3    0.100000E-19    0.100000E+01    0.100000E+01         0
             77         77           3    0.100000E-19    0.100000E+01    0.100000E+01         0
             78         78           3    0.100000E-19    0.100000E+01    0.100000E+01         0
             79         79           3    0.100000E-19    0.100000E+01    0.100000E+01         0
             80         80           3    0.100000E-19    0.100000E+01    0.100000E+01         0
             81         81           3    0.100000E-19    0.100000E+01    0.100000E+01         0
             82         82           3    0.100000E-19    0.100000E+01    0.100000E+01         0
             83         83           3    0.100000E-19    0.100000E+01    0.100000E+01         0
             84         84           3    0.100000E-19    0.100000E+01    0.100000E+01         0
             85         85           3    0.100000E-19    0.100000E+01    0.100000E+01         0
             86         86           3    0.100000E-19    0.100000E+01    0.100000E+01         0
             87         87           3    0.100000E-19    0.100000E+01    0.100000E+01         0
             88         88           3    0.100000E-19    0.100000E+01    0.100000E+01         0
             89         89           3    0.100000E-19    0.100000E+01    0.100000E+01         0
             90         90           3    0.100000E-19    0.100000E+01    0.100000E+01         0
             91         91           3    0.100000E-19    0.100000E+01    0.100000E+01         0
             92         92           3    0.100000E-19    0.100000E+01    0.100000E+01         0
             93         93           3    0.100000E-19    0.100000E+01    0.100000E+01         0
             94         94           3    0.100000E-19    0.100000E+01    0.100000E+01         0
             95         95           3    0.100000E-19    0.100000E+01    0.100000E+01         0
             96         96           3    0.100000E-19    0.100000E+01    0.100000E+01         0
             97         97           3    0.100000E-19    0.100000E+01    0.100000E+01         0
             98         98           3    0.100000E-19    0.100000E+01    0.100000E+01         0
             99         99           3    0.100000E-19    0.100000E+01    0.100000E+01         0
            100        100           3    0.100000E-19    0.100000E+01    0.100000E+01         0
            101        101           3    0.100000E-19    0.100000E+01    0.100000E+01         0

                     CONDUIT NODE INFORMATION
                    ----------------------------------------
     CONDUIT NODE        RADIUS   CONDUIT SAT K
     ------------        ------   -------------
              1    0.100000E+01    0.100000E+01

                     RECTANGULAR CLN SECTION INFORMATION
                    ----------------------------------------
     RECTANGULAR NODE        LENGTH        HEIGHT   CONDUIT SAT K
     ------------        ------        ------   -------------
              1    0.100000E+01    0.100000E+01    0.548000E-01
 

 DIS -- UNSTRUCTURED GRID DISCRETIZATION PACKAGE, VERSION 1 : 5/17/2010 - INPUT READ FROM UNIT   29

   NO. OF NODES PER LAYER =       101



                                TOP FOR LAYER   1
 READING ON UNIT   29 WITH FORMAT: (FREE)              



                                BOT FOR LAYER   1
 READING ON UNIT   29 WITH FORMAT: (FREE)              



                               AREA FOR LAYER   1
 READING ON UNIT   29 WITH FORMAT: (FREE)              



                                 IA
 READING ON UNIT   29 WITH FORMAT: (FREE)              



                                 JA
 READING ON UNIT   29 WITH FORMAT: (FREE)              



               CONNECTION LENGTH 12 FOR LAYER   1
 READING ON UNIT   29 WITH FORMAT: (FREE)              



                 PERPENDICULAR AREA
 READING ON UNIT   29 WITH FORMAT: (FREE)              


 STRESS PERIOD     LENGTH       TIME STEPS     MULTIPLIER FOR DELT    SS FLAG
 ----------------------------------------------------------------------------
        1         3600.000        100                    1.100         TR

 TRANSIENT SIMULATION






                     BOUNDARY ARRAY FOR LAYER   1
 READING ON UNIT    1 WITH FORMAT: (FREE)              

 AQUIFER HEAD WILL BE SET TO   999.00     AT ALL NO-FLOW NODES (IBOUND=0).

             INITIAL HEAD =   100.000     FOR LAYER   1

 ADAPTIVE TIME STEPPING PERFORMED. ATS VARIABLES WILL BE READ.
 -------------------------------------------------------------

          OUTPUT WILL BE PRINTED AT FOLLOWING       3 TIMES
          --------------------------------------------------
   60.00000       300.0000       3600.000    

 OUTPUT CONTROL IS SPECIFIED ONLY AT TIME STEPS FOR WHICH OUTPUT IS DESIRED
 HEAD PRINT FORMAT CODE IS   0    DRAWDOWN PRINT FORMAT CODE IS   0
 HEADS WILL BE SAVED ON UNIT   30    DRAWDOWNS WILL BE SAVED ON UNIT   31

 LPF -- LAYER-PROPERTY FLOW PACKAGE, VERSION 7, 5/2/2005
         INPUT READ FROM UNIT   11
 # MODFLOW-USG Layer Property Flow (LPF) Package
 CELL-BY-CELL FLOWS WILL BE SAVED ON UNIT   50
 HEAD AT CELLS THAT CONVERT TO DRY= -1.00000E+30
 No named parameters
 IKCFLAG=0, NODAL INPUT OF HY AND CV
 CONSTANTCV OPTION:
 Constant vertical conductance for convertible layers
 NOVFC OPTION:
 Do not apply the vertical flow correction

   LAYER FLAGS:
 LAYER       LAYTYP        LAYAVG         CHANI        LAYVKA        LAYWET
 ---------------------------------------------------------------------------
    1             4             0     1.000E+00             0             0

   INTERPRETATION OF LAYER FLAGS:
                        INTERBLOCK     HORIZONTAL    DATA IN
         LAYER TYPE   TRANSMISSIVITY   ANISOTROPY   ARRAY VKA   WETTABILITY
 LAYER      (LAYTYP)      (LAYAVG)       (CHANI)      (LAYVKA)      (LAYWET)
 ---------------------------------------------------------------------------
    1     UPSTREAM       HARMONIC     1.000E+00    VERTICAL K  NON-WETTABLE

 WETTING CAPABILITY IS NOT ACTIVE IN ANY LAYER



              HYD. COND. ALONG ROWS FOR LAYER   1
 READING ON UNIT   11 WITH FORMAT: (FREE)              



                VERTICAL HYD. COND. FOR LAYER   1
 READING ON UNIT   11 WITH FORMAT: (FREE)              



                   SPECIFIC STORAGE FOR LAYER   1
 READING ON UNIT   11 WITH FORMAT: (FREE)              



                     SPECIFIC YIELD FOR LAYER   1
 READING ON UNIT   11 WITH FORMAT: (FREE)              

 CLN -- CONDUIT DOMAIN FLOW PACKAGE, VERSION 1, 5/17/2010 INPUT READ FROM UNIT   26

  CONDUIT BOUNDARY ARRAY  =         1



              CONDUIT INITIAL HEAD 
 READING ON UNIT   26 WITH FORMAT: (FREE)              

 CHD -- TIME-VARIANT SPECIFIED-HEAD OPTION, VERSION 7, 5/2/2005
 INPUT READ FROM UNIT   23
 # MODFLOW-USGs Constant-Head Boundary Package (CHD)
 No named parameters
 MAXIMUM OF      2 TIME-VARIANT SPECIFIED-HEAD CELLS AT ONE TIME


     0 TIME-VARIANT SPECIFIED-HEAD PARAMETERS

 SMS -- SPARSE MATRIX SOLVER PACKAGE, VERSION 7, 5/2/2005
         INPUT READ FROM UNIT 19
 No named parameters
  ALL SOLVER INPUT DATA WILL BE READ FROM THE SOLVER INPUT FILE. 
 ONLY ACTIVE NODES WILL BE PASSED TO THE SOLVER
 BOTTOM DAMPING APPLIED TO EACH LINEAR SOLUTION
 OUTER ITERATION CONVERGENCE CRITERION (HCLOSE) =    0.100000E-02
 INNER ITERATION CONVERGENCE CRITERION (HICLOSE) =    0.100000E-04
 MAXIMUM NUMBER OF OUTER ITERATIONS (MXITER)     =       250
 MAXIMUM NUMBER OF INNER ITERATIONS (ITER1)      =       600
 SOLVER PRINTOUT INDEX             (IPRSMS)      =         1
 NONLINEAR ITERATION METHOD    (NONLINMETH)      =         1
 LINEAR SOLUTION METHOD           (LINMETH)      =         1
 D-B-D WEIGHT REDUCTION FACTOR      (THETA)      =    0.700000E+00
 D-B-D WEIGHT INCREASE INCREMENT    (KAPPA)      =    0.700000E-01
 D-B-D PREVIOUS HISTORY FACTOR      (GAMMA)      =    0.100000E+00
 MOMENTUM TERM                  (AMOMENTUM)      =    0.000000E+00
 MAXIMUM NUMBER OF BACKTRACKS    (NUMTRACK)      =       200
 BACKTRACKING TOLERANCE FACTOR       (BTOL)      =    0.110000E+01
 BACKTRACKING REDUCTION FACTOR     (BREDUC)      =    0.200000E+00
 BACKTRACKING RESIDUAL LIMIT      (RES_LIM)      =    0.100000E+01
 TRUNCATED NEWTON FLAG     (ITRUNCNEWTON)      =         0
 ***Newton Linearization will be used***
 
 ***XMD linear solver will be used***
 XMD -- LINEAR SOLUTION BY XMD PACKAGE VERSION 1.30
     BY MOTOMU IBARAKI, OHIO STATE UNIVERSITY, COLOMBUS, OH
                 INPUT READ FROM UNIT 19
 ACCELERATION METHOD                    (IACL) =         1
 EQUATION ORDERING FLAG               (NORDER) =         0
 LEVEL OF FILL                         (LEVEL) =         7
 MAXIMUM NUMBER OF ORTHOGONALIZATIONS  (NORTH) =        14
 INDEX FOR USING REDUCED SYSTEM      (IREDSYS) =         0
 RESID. REDUCTION CONVERGE CRITERION  (RRCTOL) =  0.000000E+00
 INDEX FOR USING DROP TOLERANCE     (IDROPTOL) =         1
 DROP TOLERANCE VALUE                 ((EPSRN) =  0.100000E-02
 

 OUTPUT CONTROL FOR STRESS PERIOD        1
    DELTAT   0.100000E-02
    TMINAT   0.100000E-04
    TMAXAT    60.0000    
    TADJAT    1.10000    
    TCUTAT    2.00000    
    SAVE HEAD FOR ALL LAYERS
    PRINT HEAD FOR ALL LAYERS
    SAVE DRAWDOWN FOR ALL LAYERS
    SAVE BUDGET
    PRINT BUDGET
1
                            STRESS PERIOD NO.    1, LENGTH =   3600.000    
                            -----------------------------------------------

                            INITIAL TIME STEP SIZE =  0.1000000E-02

 CHD -- TIME-VARIANT SPECIFIED-HEAD OPTION, VERSION 7, 5/2/2005
 INPUT READ FROM UNIT   23

 CHD NO.        NODE           START HEAD        END HEAD         
 -----------------------------------------------------------------
        1          102       2.050           2.050    
        2          202       1.010           1.010    


      2 TIME-VARIANT SPECIFIED-HEAD CELLS
 -------------------------------------------------------------------------------------
 
 SOLVING FOR HEAD 

 Outer-Iteration  Inner-Iteration  Backtracking  Number of        Incoming       Outgoing      Cutoff     Maximum Head Change      Maximum Head Change
     Number           Count           Flag       Backtracks       Residual       Residual      Residual            Value               Location
        1                             0             0          0.810106E-03     0.810106E-03   -1.00000    
        1                2                                                                                        0.00000                      1           GWF-node number
        1                2                                                                                       0.284481E-04                  2           CLN-node number


     1 CALLS TO SPARSE MATRIX SOLVER PACKAGE  IN FLOW TIME STEP       1 STRESS PERIOD       1

 TOTAL OF       1OUTER ITERATIONS
  MAXIMUM CHANGE FOR EACH ITERATION:
   MAX. CHANGE        NODE  MAX. CHANGE        NODE  MAX. CHANGE        NODE  MAX. CHANGE        NODE  MAX. CHANGE        NODE
 ------------------------------------------------------------------------------------------------------------------------------------
    0.0000    ,          1

  MAXIMUM CHANGE FOR CLN NODE AT EACH ITERATION:
   MAX. CHANGE    CLN-CELL  MAX. CHANGE    CLN-CELL  MAX. CHANGE    CLN-CELL  MAX. CHANGE    CLN-CELL  MAX. CHANGE    CLN-CELL
 ------------------------------------------------------------------------------------------------------------------------------------
   0.28448E-04,          2
1
  VOLUMETRIC BUDGET FOR ENTIRE MODEL AT END OF TIME STEP       1 IN STRESS PERIOD       1
  ---------------------------------------------------------------------------------------

     CUMULATIVE VOLUMES      L**3       RATES FOR THIS TIME STEP      L**3/T
     ------------------                 ------------------------

           IN:                                      IN:
           ---                                      ---
             STORAGE =           0.0000               STORAGE =           0.0000
         CLN STORAGE =           0.0000           CLN STORAGE =           0.0000
       CONSTANT HEAD =           0.0000         CONSTANT HEAD =           0.0000
      CLN CONST HEAD =       2.8449E-05        CLN CONST HEAD =       2.8449E-02

            TOTAL IN =       2.8449E-05              TOTAL IN =       2.8449E-02

          OUT:                                     OUT:
          ----                                     ----
             STORAGE =           0.0000               STORAGE =           0.0000
         CLN STORAGE =       6.0028E-02           CLN STORAGE =          60.0284
       CONSTANT HEAD =           0.0000         CONSTANT HEAD =           0.0000
      CLN CONST HEAD =           0.0000        CLN CONST HEAD =           0.0000

           TOTAL OUT =       6.0028E-02             TOTAL OUT =          60.0284

            IN - OUT =      -6.0000E-02              IN - OUT =         -59.9999

 PERCENT DISCREPANCY =        -199.81     PERCENT DISCREPANCY =        -199.81






          TIME SUMMARY AT END OF TIME STEP         1 IN STRESS PERIOD         1
                    SECONDS     MINUTES      HOURS       DAYS        YEARS
                    -----------------------------------------------------------
   TIME STEP LENGTH 1.00000E-03 1.66667E-05 2.77778E-07 1.15741E-08 3.16881E-11
 STRESS PERIOD TIME 1.00000E-03 1.66667E-05 2.77778E-07 1.15741E-08 3.16881E-11
         TOTAL TIME 1.00000E-03 1.66667E-05 2.77778E-07 1.15741E-08 3.16881E-11
1
 -------------------------------------------------------------------------------------
 
 SOLVING FOR HEAD 

 Outer-Iteration  Inner-Iteration  Backtracking  Number of        Incoming       Outgoing      Cutoff     Maximum Head Change      Maximum Head Change
     Number           Count           Flag       Backtracks       Residual       Residual      Residual            Value               Location
        1                             0             0          0.672751E-05     0.672751E-05   -1.00000    
        1                1                                                                                        0.00000                      1           GWF-node number
        1                1                                                                                       0.285154E-05                  2           CLN-node number
     1 CALLS TO SPARSE MATRIX SOLVER PACKAGE  IN FLOW TIME STEP       2 STRESS PERIOD       1

 TOTAL OF       1OUTER ITERATIONS
  MAXIMUM CHANGE FOR EACH ITERATION:
   MAX. CHANGE        NODE  MAX. CHANGE        NODE  MAX. CHANGE        NODE  MAX. CHANGE        NODE  MAX. CHANGE        NODE
 ------------------------------------------------------------------------------------------------------------------------------------
    0.0000    ,          1

  MAXIMUM CHANGE FOR CLN NODE AT EACH ITERATION:
   MAX. CHANGE    CLN-CELL  MAX. CHANGE    CLN-CELL  MAX. CHANGE    CLN-CELL  MAX. CHANGE    CLN-CELL  MAX. CHANGE    CLN-CELL
 ------------------------------------------------------------------------------------------------------------------------------------
   0.28515E-05,          2
1
  VOLUMETRIC BUDGET FOR ENTIRE MODEL AT END OF TIME STEP       2 IN STRESS PERIOD       1
  ---------------------------------------------------------------------------------------

     CUMULATIVE VOLUMES      L**3       RATES FOR THIS TIME STEP      L**3/T
     ------------------                 ------------------------

           IN:                                      IN:
           ---                                      ---
             STORAGE =           0.0000               STORAGE =           0.0000
         CLN STORAGE =           0.0000           CLN STORAGE =           0.0000
       CONSTANT HEAD =           0.0000         CONSTANT HEAD =           0.0000
      CLN CONST HEAD =       5.9749E-05        CLN CONST HEAD =       2.8454E-02

            TOTAL IN =       5.9749E-05              TOTAL IN =       2.8454E-02

          OUT:                                     OUT:
          ----                                     ----
             STORAGE =           0.0000               STORAGE =           0.0000
         CLN STORAGE =       6.0060E-02           CLN STORAGE =       2.8454E-02
       CONSTANT HEAD =           0.0000         CONSTANT HEAD =           0.0000
      CLN CONST HEAD =           0.0000        CLN CONST HEAD =           0.0000

           TOTAL OUT =       6.0060E-02             TOTAL OUT =       2.8454E-02

            IN - OUT =      -6.0000E-02              IN - OUT =       8.1142E-08

 PERCENT DISCREPANCY =        -199.60     PERCENT DISCREPANCY =           0.00






          TIME SUMMARY AT END OF TIME STEP         2 IN STRESS PERIOD         1
                    SECONDS     MINUTES      HOURS       DAYS        YEARS
                    -----------------------------------------------------------
   TIME STEP LENGTH 1.10000E-03 1.83333E-05 3.05556E-07 1.27315E-08 3.48569E-11
 STRESS PERIOD TIME 2.10000E-03 3.50000E-05 5.83333E-07 2.43056E-08 6.65450E-11
         TOTAL TIME 2.10000E-03 3.50000E-05 5.83333E-07 2.43056E-08 6.65450E-11
1
 -------------------------------------------------------------------------------------
 
 SOLVING FOR HEAD 

 Outer-Iteration  Inner-Iteration  Backtracking  Number of        Incoming       Outgoing      Cutoff     Maximum Head Change      Maximum Head Change
     Number           Count           Flag       Backtracks       Residual       Residual      Residual            Value               Location
        1                             0             0          0.681121E-03     0.681121E-03   -1.00000    
        1                2                                                                                        0.00000                      1           GWF-node number
        1                2                                                                                       0.315597E-04                  2           CLN-node number
     1 CALLS TO SPARSE MATRIX SOLVER PACKAGE  IN FLOW TIME STEP       3 STRESS PERIOD       1

 TOTAL OF       1OUTER ITERATIONS
  MAXIMUM CHANGE FOR EACH ITERATION:
   MAX. CHANGE        NODE  MAX. CHANGE        NODE  MAX. CHANGE        NODE  MAX. CHANGE        NODE  MAX. CHANGE        NODE
 ------------------------------------------------------------------------------------------------------------------------------------
    0.0000    ,          1

  MAXIMUM CHANGE FOR CLN NODE AT EACH ITERATION:
   MAX. CHANGE    CLN-CELL  MAX. CHANGE    CLN-CELL  MAX. CHANGE    CLN-CELL  MAX. CHANGE    CLN-CELL  MAX. CHANGE    CLN-CELL
 ------------------------------------------------------------------------------------------------------------------------------------
   0.31560E-04,          2
1
  VOLUMETRIC BUDGET FOR ENTIRE MODEL AT END OF TIME STEP       3 IN STRESS PERIOD       1
  ---------------------------------------------------------------------------------------

     CUMULATIVE VOLUMES      L**3       RATES FOR THIS TIME STEP      L**3/T
     ------------------                 ------------------------

           IN:                                      IN:
           ---                                      ---
             STORAGE =           0.0000               STORAGE =           0.0000
         CLN STORAGE =       2.2204E-16           CLN STORAGE =       1.8351E-13
       CONSTANT HEAD =           0.0000         CONSTANT HEAD =           0.0000
      CLN CONST HEAD =       9.4161E-05        CLN CONST HEAD =       2.8440E-02

            TOTAL IN =       9.4161E-05              TOTAL IN =       2.8440E-02

          OUT:                                     OUT:
          ----                                     ----
             STORAGE =           0.0000               STORAGE =           0.0000
         CLN STORAGE =       6.0094E-02           CLN STORAGE =       2.8439E-02
       CONSTANT HEAD =           0.0000         CONSTANT HEAD =           0.0000
      CLN CONST HEAD =           0.0000        CLN CONST HEAD =           0.0000

           TOTAL OUT =       6.0094E-02             TOTAL OUT =       2.8439E-02

            IN - OUT =      -6.0000E-02              IN - OUT =       8.9803E-07

 PERCENT DISCREPANCY =        -199.37     PERCENT DISCREPANCY =           0.00






          TIME SUMMARY AT END OF TIME STEP         3 IN STRESS PERIOD         1
                    SECONDS     MINUTES      HOURS       DAYS        YEARS
                    -----------------------------------------------------------
   TIME STEP LENGTH 1.21000E-03 2.01667E-05 3.36111E-07 1.40046E-08 3.83426E-11
 STRESS PERIOD TIME 3.31000E-03 5.51667E-05 9.19445E-07 3.83102E-08 1.04888E-10
         TOTAL TIME 3.31000E-03 5.51667E-05 9.19445E-07 3.83102E-08 1.04888E-10
1
 -------------------------------------------------------------------------------------
 
 SOLVING FOR HEAD 

 Outer-Iteration  Inner-Iteration  Backtracking  Number of        Incoming       Outgoing      Cutoff     Maximum Head Change      Maximum Head Change
     Number           Count           Flag       Backtracks       Residual       Residual      Residual            Value               Location
        1                             0             0          0.224312E-04     0.224312E-04   -1.00000    
        1                1                                                                                        0.00000                      1           GWF-node number
        1                1                                                                                       0.629961E-05                  2           CLN-node number
     1 CALLS TO SPARSE MATRIX SOLVER PACKAGE  IN FLOW TIME STEP       4 STRESS PERIOD       1

 TOTAL OF       1OUTER ITERATIONS
  MAXIMUM CHANGE FOR EACH ITERATION:
   MAX. CHANGE        NODE  MAX. CHANGE        NODE  MAX. CHANGE        NODE  MAX. CHANGE        NODE  MAX. CHANGE        NODE
 ------------------------------------------------------------------------------------------------------------------------------------
    0.0000    ,          1

  MAXIMUM CHANGE FOR CLN NODE AT EACH ITERATION:
   MAX. CHANGE    CLN-CELL  MAX. CHANGE    CLN-CELL  MAX. CHANGE    CLN-CELL  MAX. CHANGE    CLN-CELL  MAX. CHANGE    CLN-CELL
 ------------------------------------------------------------------------------------------------------------------------------------
   0.62996E-05,          2
1
  VOLUMETRIC BUDGET FOR ENTIRE MODEL AT END OF TIME STEP       4 IN STRESS PERIOD       1
  ---------------------------------------------------------------------------------------

     CUMULATIVE VOLUMES      L**3       RATES FOR THIS TIME STEP      L**3/T
     ------------------                 ------------------------

           IN:                                      IN:
           ---                                      ---
             STORAGE =           0.0000               STORAGE =           0.0000
         CLN STORAGE =       2.2204E-16           CLN STORAGE =           0.0000
       CONSTANT HEAD =           0.0000         CONSTANT HEAD =           0.0000
      CLN CONST HEAD =       1.3202E-04        CLN CONST HEAD =       2.8444E-02

            TOTAL IN =       1.3202E-04              TOTAL IN =       2.8444E-02

          OUT:                                     OUT:
          ----                                     ----
             STORAGE =           0.0000               STORAGE =           0.0000
         CLN STORAGE =       6.0132E-02           CLN STORAGE =       2.8444E-02
       CONSTANT HEAD =           0.0000         CONSTANT HEAD =           0.0000
      CLN CONST HEAD =           0.0000        CLN CONST HEAD =           0.0000

           TOTAL OUT =       6.0132E-02             TOTAL OUT =       2.8444E-02

            IN - OUT =      -6.0000E-02              IN - OUT =       1.7921E-07

 PERCENT DISCREPANCY =        -199.12     PERCENT DISCREPANCY =           0.00






          TIME SUMMARY AT END OF TIME STEP         4 IN STRESS PERIOD         1
                    SECONDS     MINUTES      HOURS       DAYS        YEARS
                    -----------------------------------------------------------
   TIME STEP LENGTH 1.33100E-03 2.21833E-05 3.69722E-07 1.54051E-08 4.21768E-11
 STRESS PERIOD TIME 4.64100E-03 7.73500E-05 1.28917E-06 5.37153E-08 1.47064E-10
         TOTAL TIME 4.64100E-03 7.73500E-05 1.28917E-06 5.37153E-08 1.47064E-10
1
 -------------------------------------------------------------------------------------
 
 SOLVING FOR HEAD 

 Outer-Iteration  Inner-Iteration  Backtracking  Number of        Incoming       Outgoing      Cutoff     Maximum Head Change      Maximum Head Change
     Number           Count           Flag       Backtracks       Residual       Residual      Residual            Value               Location
        1                             0             0          0.582896E-03     0.582896E-03   -1.00000    
        1                2                                                                                        0.00000                      1           GWF-node number
        1                2                                                                                       0.353221E-04                  2           CLN-node number
     1 CALLS TO SPARSE MATRIX SOLVER PACKAGE  IN FLOW TIME STEP       5 STRESS PERIOD       1

 TOTAL OF       1OUTER ITERATIONS
  MAXIMUM CHANGE FOR EACH ITERATION:
   MAX. CHANGE        NODE  MAX. CHANGE        NODE  MAX. CHANGE        NODE  MAX. CHANGE        NODE  MAX. CHANGE        NODE
 ------------------------------------------------------------------------------------------------------------------------------------
    0.0000    ,          1

  MAXIMUM CHANGE FOR CLN NODE AT EACH ITERATION:
   MAX. CHANGE    CLN-CELL  MAX. CHANGE    CLN-CELL  MAX. CHANGE    CLN-CELL  MAX. CHANGE    CLN-CELL  MAX. CHANGE    CLN-CELL
 ------------------------------------------------------------------------------------------------------------------------------------
   0.35322E-04,          2
1
  VOLUMETRIC BUDGET FOR ENTIRE MODEL AT END OF TIME STEP       5 IN STRESS PERIOD       1
  ---------------------------------------------------------------------------------------

     CUMULATIVE VOLUMES      L**3       RATES FOR THIS TIME STEP      L**3/T
     ------------------                 ------------------------

           IN:                                      IN:
           ---                                      ---
             STORAGE =           0.0000               STORAGE =           0.0000
         CLN STORAGE =       2.2204E-16           CLN STORAGE =           0.0000
       CONSTANT HEAD =           0.0000         CONSTANT HEAD =           0.0000
      CLN CONST HEAD =       1.7364E-04        CLN CONST HEAD =       2.8429E-02

            TOTAL IN =       1.7364E-04              TOTAL IN =       2.8429E-02

          OUT:                                     OUT:
          ----                                     ----
             STORAGE =           0.0000               STORAGE =           0.0000
         CLN STORAGE =       6.0174E-02           CLN STORAGE =       2.8428E-02
       CONSTANT HEAD =           0.0000         CONSTANT HEAD =           0.0000
      CLN CONST HEAD =           0.0000        CLN CONST HEAD =           0.0000

           TOTAL OUT =       6.0174E-02             TOTAL OUT =       2.8428E-02

            IN - OUT =      -6.0000E-02              IN - OUT =       1.0048E-06

 PERCENT DISCREPANCY =        -198.85     PERCENT DISCREPANCY =           0.00






          TIME SUMMARY AT END OF TIME STEP         5 IN STRESS PERIOD         1
                    SECONDS     MINUTES      HOURS       DAYS        YEARS
                    -----------------------------------------------------------
   TIME STEP LENGTH 1.46410E-03 2.44017E-05 4.06695E-07 1.69456E-08 4.63945E-11
 STRESS PERIOD TIME 6.10510E-03 1.01752E-04 1.69586E-06 7.06609E-08 1.93459E-10
         TOTAL TIME 6.10510E-03 1.01752E-04 1.69586E-06 7.06609E-08 1.93459E-10
1
 -------------------------------------------------------------------------------------
 
 SOLVING FOR HEAD 

 Outer-Iteration  Inner-Iteration  Backtracking  Number of        Incoming       Outgoing      Cutoff     Maximum Head Change      Maximum Head Change
     Number           Count           Flag       Backtracks       Residual       Residual      Residual            Value               Location
        1                             0             0          0.423193E-04     0.423193E-04   -1.00000    
        1                2                                                                                        0.00000                      1           GWF-node number
        1                2                                                                                       0.104684E-04                  2           CLN-node number
     1 CALLS TO SPARSE MATRIX SOLVER PACKAGE  IN FLOW TIME STEP       6 STRESS PERIOD       1

 TOTAL OF       1OUTER ITERATIONS
  MAXIMUM CHANGE FOR EACH ITERATION:
   MAX. CHANGE        NODE  MAX. CHANGE        NODE  MAX. CHANGE        NODE  MAX. CHANGE        NODE  MAX. CHANGE        NODE
 ------------------------------------------------------------------------------------------------------------------------------------
    0.0000    ,          1

  MAXIMUM CHANGE FOR CLN NODE AT EACH ITERATION:
   MAX. CHANGE    CLN-CELL  MAX. CHANGE    CLN-CELL  MAX. CHANGE    CLN-CELL  MAX. CHANGE    CLN-CELL  MAX. CHANGE    CLN-CELL
 ------------------------------------------------------------------------------------------------------------------------------------
   0.10468E-04,          2
1
  VOLUMETRIC BUDGET FOR ENTIRE MODEL AT END OF TIME STEP       6 IN STRESS PERIOD       1
  ---------------------------------------------------------------------------------------

     CUMULATIVE VOLUMES      L**3       RATES FOR THIS TIME STEP      L**3/T
     ------------------                 ------------------------

           IN:                                      IN:
           ---                                      ---
             STORAGE =           0.0000               STORAGE =           0.0000
         CLN STORAGE =       6.6613E-16           CLN STORAGE =       2.7574E-13
       CONSTANT HEAD =           0.0000         CONSTANT HEAD =           0.0000
      CLN CONST HEAD =       2.1943E-04        CLN CONST HEAD =       2.8433E-02

            TOTAL IN =       2.1943E-04              TOTAL IN =       2.8433E-02

          OUT:                                     OUT:
          ----                                     ----
             STORAGE =           0.0000               STORAGE =           0.0000
         CLN STORAGE =       6.0219E-02           CLN STORAGE =       2.8432E-02
       CONSTANT HEAD =           0.0000         CONSTANT HEAD =           0.0000
      CLN CONST HEAD =           0.0000        CLN CONST HEAD =           0.0000

           TOTAL OUT =       6.0219E-02             TOTAL OUT =       2.8432E-02

            IN - OUT =      -6.0000E-02              IN - OUT =       2.9770E-07

 PERCENT DISCREPANCY =        -198.55     PERCENT DISCREPANCY =           0.00






          TIME SUMMARY AT END OF TIME STEP         6 IN STRESS PERIOD         1
                    SECONDS     MINUTES      HOURS       DAYS        YEARS
                    -----------------------------------------------------------
   TIME STEP LENGTH 1.61051E-03 2.68418E-05 4.47364E-07 1.86402E-08 5.10340E-11
 STRESS PERIOD TIME 7.71561E-03 1.28594E-04 2.14323E-06 8.93010E-08 2.44493E-10
         TOTAL TIME 7.71561E-03 1.28594E-04 2.14323E-06 8.93010E-08 2.44493E-10
1
 -------------------------------------------------------------------------------------
 
 SOLVING FOR HEAD 

 Outer-Iteration  Inner-Iteration  Backtracking  Number of        Incoming       Outgoing      Cutoff     Maximum Head Change      Maximum Head Change
     Number           Count           Flag       Backtracks       Residual       Residual      Residual            Value               Location
        1                             0             0          0.507418E-03     0.507418E-03   -1.00000    
        1                2                                                                                        0.00000                      1           GWF-node number
        1                2                                                                                       0.398705E-04                  2           CLN-node number
     1 CALLS TO SPARSE MATRIX SOLVER PACKAGE  IN FLOW TIME STEP       7 STRESS PERIOD       1

 TOTAL OF       1OUTER ITERATIONS
  MAXIMUM CHANGE FOR EACH ITERATION:
   MAX. CHANGE        NODE  MAX. CHANGE        NODE  MAX. CHANGE        NODE  MAX. CHANGE        NODE  MAX. CHANGE        NODE
 ------------------------------------------------------------------------------------------------------------------------------------
    0.0000    ,          1

  MAXIMUM CHANGE FOR CLN NODE AT EACH ITERATION:
   MAX. CHANGE    CLN-CELL  MAX. CHANGE    CLN-CELL  MAX. CHANGE    CLN-CELL  MAX. CHANGE    CLN-CELL  MAX. CHANGE    CLN-CELL
 ------------------------------------------------------------------------------------------------------------------------------------
   0.39871E-04,          2
1
  VOLUMETRIC BUDGET FOR ENTIRE MODEL AT END OF TIME STEP       7 IN STRESS PERIOD       1
  ---------------------------------------------------------------------------------------

     CUMULATIVE VOLUMES      L**3       RATES FOR THIS TIME STEP      L**3/T
     ------------------                 ------------------------

           IN:                                      IN:
           ---                                      ---
             STORAGE =           0.0000               STORAGE =           0.0000
         CLN STORAGE =       1.3323E-15           CLN STORAGE =       3.7602E-13
       CONSTANT HEAD =           0.0000         CONSTANT HEAD =           0.0000
      CLN CONST HEAD =       2.6978E-04        CLN CONST HEAD =       2.8416E-02

            TOTAL IN =       2.6978E-04              TOTAL IN =       2.8416E-02

          OUT:                                     OUT:
          ----                                     ----
             STORAGE =           0.0000               STORAGE =           0.0000
         CLN STORAGE =       6.0270E-02           CLN STORAGE =       2.8415E-02
       CONSTANT HEAD =           0.0000         CONSTANT HEAD =           0.0000
      CLN CONST HEAD =           0.0000        CLN CONST HEAD =           0.0000

           TOTAL OUT =       6.0270E-02             TOTAL OUT =       2.8415E-02

            IN - OUT =      -6.0000E-02              IN - OUT =       1.1337E-06

 PERCENT DISCREPANCY =        -198.22     PERCENT DISCREPANCY =           0.00






          TIME SUMMARY AT END OF TIME STEP         7 IN STRESS PERIOD         1
                    SECONDS     MINUTES      HOURS       DAYS        YEARS
                    -----------------------------------------------------------
   TIME STEP LENGTH 1.77156E-03 2.95260E-05 4.92100E-07 2.05042E-08 5.61374E-11
 STRESS PERIOD TIME 9.48717E-03 1.58120E-04 2.63533E-06 1.09805E-07 3.00630E-10
         TOTAL TIME 9.48717E-03 1.58120E-04 2.63533E-06 1.09805E-07 3.00630E-10
1
 -------------------------------------------------------------------------------------
 
 SOLVING FOR HEAD 

 Outer-Iteration  Inner-Iteration  Backtracking  Number of        Incoming       Outgoing      Cutoff     Maximum Head Change      Maximum Head Change
     Number           Count           Flag       Backtracks       Residual       Residual      Residual            Value               Location
        1                             0             0          0.634529E-04     0.634529E-04   -1.00000    
        1                2                                                                                        0.00000                      1           GWF-node number
        1                2                                                                                       0.155078E-04                  2           CLN-node number
     1 CALLS TO SPARSE MATRIX SOLVER PACKAGE  IN FLOW TIME STEP       8 STRESS PERIOD       1

 TOTAL OF       1OUTER ITERATIONS
  MAXIMUM CHANGE FOR EACH ITERATION:
   MAX. CHANGE        NODE  MAX. CHANGE        NODE  MAX. CHANGE        NODE  MAX. CHANGE        NODE  MAX. CHANGE        NODE
 ------------------------------------------------------------------------------------------------------------------------------------
    0.0000    ,          1

  MAXIMUM CHANGE FOR CLN NODE AT EACH ITERATION:
   MAX. CHANGE    CLN-CELL  MAX. CHANGE    CLN-CELL  MAX. CHANGE    CLN-CELL  MAX. CHANGE    CLN-CELL  MAX. CHANGE    CLN-CELL
 ------------------------------------------------------------------------------------------------------------------------------------
   0.15508E-04,          2
1
  VOLUMETRIC BUDGET FOR ENTIRE MODEL AT END OF TIME STEP       8 IN STRESS PERIOD       1
  ---------------------------------------------------------------------------------------

     CUMULATIVE VOLUMES      L**3       RATES FOR THIS TIME STEP      L**3/T
     ------------------                 ------------------------

           IN:                                      IN:
           ---                                      ---
             STORAGE =           0.0000               STORAGE =           0.0000
         CLN STORAGE =       2.8866E-15           CLN STORAGE =       7.9761E-13
       CONSTANT HEAD =           0.0000         CONSTANT HEAD =           0.0000
      CLN CONST HEAD =       3.2515E-04        CLN CONST HEAD =       2.8418E-02

            TOTAL IN =       3.2515E-04              TOTAL IN =       2.8418E-02

          OUT:                                     OUT:
          ----                                     ----
             STORAGE =           0.0000               STORAGE =           0.0000
         CLN STORAGE =       6.0325E-02           CLN STORAGE =       2.8418E-02
       CONSTANT HEAD =           0.0000         CONSTANT HEAD =           0.0000
      CLN CONST HEAD =           0.0000        CLN CONST HEAD =           0.0000

           TOTAL OUT =       6.0325E-02             TOTAL OUT =       2.8418E-02

            IN - OUT =      -6.0000E-02              IN - OUT =       4.4082E-07

 PERCENT DISCREPANCY =        -197.86     PERCENT DISCREPANCY =           0.00






          TIME SUMMARY AT END OF TIME STEP         8 IN STRESS PERIOD         1
                    SECONDS     MINUTES      HOURS       DAYS        YEARS
                    -----------------------------------------------------------
   TIME STEP LENGTH 1.94872E-03 3.24786E-05 5.41310E-07 2.25546E-08 6.17511E-11
 STRESS PERIOD TIME 1.14359E-02 1.90598E-04 3.17664E-06 1.32360E-07 3.62381E-10
         TOTAL TIME 1.14359E-02 1.90598E-04 3.17664E-06 1.32360E-07 3.62381E-10
1
 -------------------------------------------------------------------------------------
 
 SOLVING FOR HEAD 

 Outer-Iteration  Inner-Iteration  Backtracking  Number of        Incoming       Outgoing      Cutoff     Maximum Head Change      Maximum Head Change
     Number           Count           Flag       Backtracks       Residual       Residual      Residual            Value               Location
        1                             0             0          0.448908E-03     0.448908E-03   -1.00000    
        1                2                                                                                        0.00000                      1           GWF-node number
        1                2                                                                                       0.453682E-04                  2           CLN-node number
     1 CALLS TO SPARSE MATRIX SOLVER PACKAGE  IN FLOW TIME STEP       9 STRESS PERIOD       1

 TOTAL OF       1OUTER ITERATIONS
  MAXIMUM CHANGE FOR EACH ITERATION:
   MAX. CHANGE        NODE  MAX. CHANGE        NODE  MAX. CHANGE        NODE  MAX. CHANGE        NODE  MAX. CHANGE        NODE
 ------------------------------------------------------------------------------------------------------------------------------------
    0.0000    ,          1

  MAXIMUM CHANGE FOR CLN NODE AT EACH ITERATION:
   MAX. CHANGE    CLN-CELL  MAX. CHANGE    CLN-CELL  MAX. CHANGE    CLN-CELL  MAX. CHANGE    CLN-CELL  MAX. CHANGE    CLN-CELL
 ------------------------------------------------------------------------------------------------------------------------------------
   0.45368E-04,          2
1
  VOLUMETRIC BUDGET FOR ENTIRE MODEL AT END OF TIME STEP       9 IN STRESS PERIOD       1
  ---------------------------------------------------------------------------------------

     CUMULATIVE VOLUMES      L**3       RATES FOR THIS TIME STEP      L**3/T
     ------------------                 ------------------------

           IN:                                      IN:
           ---                                      ---
             STORAGE =           0.0000               STORAGE =           0.0000
         CLN STORAGE =       3.9968E-15           CLN STORAGE =       5.1793E-13
       CONSTANT HEAD =           0.0000         CONSTANT HEAD =           0.0000
      CLN CONST HEAD =       3.8603E-04        CLN CONST HEAD =       2.8400E-02

            TOTAL IN =       3.8603E-04              TOTAL IN =       2.8400E-02

          OUT:                                     OUT:
          ----                                     ----
             STORAGE =           0.0000               STORAGE =           0.0000
         CLN STORAGE =       6.0386E-02           CLN STORAGE =       2.8399E-02
       CONSTANT HEAD =           0.0000         CONSTANT HEAD =           0.0000
      CLN CONST HEAD =           0.0000        CLN CONST HEAD =           0.0000

           TOTAL OUT =       6.0386E-02             TOTAL OUT =       2.8399E-02

            IN - OUT =      -6.0000E-02              IN - OUT =       1.2895E-06

 PERCENT DISCREPANCY =        -197.46     PERCENT DISCREPANCY =           0.00






          TIME SUMMARY AT END OF TIME STEP         9 IN STRESS PERIOD         1
                    SECONDS     MINUTES      HOURS       DAYS        YEARS
                    -----------------------------------------------------------
   TIME STEP LENGTH 2.14359E-03 3.57265E-05 5.95441E-07 2.48101E-08 6.79262E-11
 STRESS PERIOD TIME 1.35795E-02 2.26325E-04 3.77208E-06 1.57170E-07 4.30308E-10
         TOTAL TIME 1.35795E-02 2.26325E-04 3.77208E-06 1.57170E-07 4.30308E-10
1
 -------------------------------------------------------------------------------------
 
 SOLVING FOR HEAD 

 Outer-Iteration  Inner-Iteration  Backtracking  Number of        Incoming       Outgoing      Cutoff     Maximum Head Change      Maximum Head Change
     Number           Count           Flag       Backtracks       Residual       Residual      Residual            Value               Location
        1                             0             0          0.840999E-04     0.840999E-04   -1.00000    
        1                2                                                                                        0.00000                      1           GWF-node number
        1                2                                                                                       0.215981E-04                  2           CLN-node number
     1 CALLS TO SPARSE MATRIX SOLVER PACKAGE  IN FLOW TIME STEP      10 STRESS PERIOD       1

 TOTAL OF       1OUTER ITERATIONS
  MAXIMUM CHANGE FOR EACH ITERATION:
   MAX. CHANGE        NODE  MAX. CHANGE        NODE  MAX. CHANGE        NODE  MAX. CHANGE        NODE  MAX. CHANGE        NODE
 ------------------------------------------------------------------------------------------------------------------------------------
    0.0000    ,          1

  MAXIMUM CHANGE FOR CLN NODE AT EACH ITERATION:
   MAX. CHANGE    CLN-CELL  MAX. CHANGE    CLN-CELL  MAX. CHANGE    CLN-CELL  MAX. CHANGE    CLN-CELL  MAX. CHANGE    CLN-CELL
 ------------------------------------------------------------------------------------------------------------------------------------
   0.21598E-04,          2
1
  VOLUMETRIC BUDGET FOR ENTIRE MODEL AT END OF TIME STEP      10 IN STRESS PERIOD       1
  ---------------------------------------------------------------------------------------

     CUMULATIVE VOLUMES      L**3       RATES FOR THIS TIME STEP      L**3/T
     ------------------                 ------------------------

           IN:                                      IN:
           ---                                      ---
             STORAGE =           0.0000               STORAGE =           0.0000
         CLN STORAGE =       5.1070E-15           CLN STORAGE =       4.7084E-13
       CONSTANT HEAD =           0.0000         CONSTANT HEAD =           0.0000
      CLN CONST HEAD =       4.5300E-04        CLN CONST HEAD =       2.8401E-02

            TOTAL IN =       4.5300E-04              TOTAL IN =       2.8401E-02

          OUT:                                     OUT:
          ----                                     ----
             STORAGE =           0.0000               STORAGE =           0.0000
         CLN STORAGE =       6.0453E-02           CLN STORAGE =       2.8400E-02
       CONSTANT HEAD =           0.0000         CONSTANT HEAD =           0.0000
      CLN CONST HEAD =           0.0000        CLN CONST HEAD =           0.0000

           TOTAL OUT =       6.0453E-02             TOTAL OUT =       2.8400E-02

            IN - OUT =      -6.0000E-02              IN - OUT =       6.1363E-07

 PERCENT DISCREPANCY =        -197.02     PERCENT DISCREPANCY =           0.00






          TIME SUMMARY AT END OF TIME STEP        10 IN STRESS PERIOD         1
                    SECONDS     MINUTES      HOURS       DAYS        YEARS
                    -----------------------------------------------------------
   TIME STEP LENGTH 2.35795E-03 3.92991E-05 6.54986E-07 2.72911E-08 7.47189E-11
 STRESS PERIOD TIME 1.59374E-02 2.65624E-04 4.42706E-06 1.84461E-07 5.05027E-10
         TOTAL TIME 1.59374E-02 2.65624E-04 4.42706E-06 1.84461E-07 5.05027E-10
1
 -------------------------------------------------------------------------------------
 
 SOLVING FOR HEAD 

 Outer-Iteration  Inner-Iteration  Backtracking  Number of        Incoming       Outgoing      Cutoff     Maximum Head Change      Maximum Head Change
     Number           Count           Flag       Backtracks       Residual       Residual      Residual            Value               Location
        1                             0             0          0.403166E-03     0.403166E-03   -1.00000    
        1                2                                                                                        0.00000                      1           GWF-node number
        1                2                                                                                       0.520118E-04                  2           CLN-node number
     1 CALLS TO SPARSE MATRIX SOLVER PACKAGE  IN FLOW TIME STEP      11 STRESS PERIOD       1

 TOTAL OF       1OUTER ITERATIONS
  MAXIMUM CHANGE FOR EACH ITERATION:
   MAX. CHANGE        NODE  MAX. CHANGE        NODE  MAX. CHANGE        NODE  MAX. CHANGE        NODE  MAX. CHANGE        NODE
 ------------------------------------------------------------------------------------------------------------------------------------
    0.0000    ,          1

  MAXIMUM CHANGE FOR CLN NODE AT EACH ITERATION:
   MAX. CHANGE    CLN-CELL  MAX. CHANGE    CLN-CELL  MAX. CHANGE    CLN-CELL  MAX. CHANGE    CLN-CELL  MAX. CHANGE    CLN-CELL
 ------------------------------------------------------------------------------------------------------------------------------------
   0.52012E-04,          2
1
  VOLUMETRIC BUDGET FOR ENTIRE MODEL AT END OF TIME STEP      11 IN STRESS PERIOD       1
  ---------------------------------------------------------------------------------------

     CUMULATIVE VOLUMES      L**3       RATES FOR THIS TIME STEP      L**3/T
     ------------------                 ------------------------

           IN:                                      IN:
           ---                                      ---
             STORAGE =           0.0000               STORAGE =           0.0000
         CLN STORAGE =       5.5511E-15           CLN STORAGE =       1.7122E-13
       CONSTANT HEAD =           0.0000         CONSTANT HEAD =           0.0000
      CLN CONST HEAD =       5.2662E-04        CLN CONST HEAD =       2.8381E-02

            TOTAL IN =       5.2662E-04              TOTAL IN =       2.8381E-02

          OUT:                                     OUT:
          ----                                     ----
             STORAGE =           0.0000               STORAGE =           0.0000
         CLN STORAGE =       6.0527E-02           CLN STORAGE =       2.8380E-02
       CONSTANT HEAD =           0.0000         CONSTANT HEAD =           0.0000
      CLN CONST HEAD =           0.0000        CLN CONST HEAD =           0.0000

           TOTAL OUT =       6.0527E-02             TOTAL OUT =       2.8380E-02

            IN - OUT =      -6.0000E-02              IN - OUT =       1.4774E-06

 PERCENT DISCREPANCY =        -196.55     PERCENT DISCREPANCY =           0.01






          TIME SUMMARY AT END OF TIME STEP        11 IN STRESS PERIOD         1
                    SECONDS     MINUTES      HOURS       DAYS        YEARS
                    -----------------------------------------------------------
   TIME STEP LENGTH 2.59374E-03 4.32291E-05 7.20484E-07 3.00202E-08 8.21908E-11
 STRESS PERIOD TIME 1.85312E-02 3.08853E-04 5.14755E-06 2.14481E-07 5.87217E-10
         TOTAL TIME 1.85312E-02 3.08853E-04 5.14755E-06 2.14481E-07 5.87217E-10
1
 -------------------------------------------------------------------------------------
 
 SOLVING FOR HEAD 

 Outer-Iteration  Inner-Iteration  Backtracking  Number of        Incoming       Outgoing      Cutoff     Maximum Head Change      Maximum Head Change
     Number           Count           Flag       Backtracks       Residual       Residual      Residual            Value               Location
        1                             0             0          0.103304E-03     0.103304E-03   -1.00000    
        1                2                                                                                        0.00000                      1           GWF-node number
        1                2                                                                                       0.289570E-04                  2           CLN-node number
     1 CALLS TO SPARSE MATRIX SOLVER PACKAGE  IN FLOW TIME STEP      12 STRESS PERIOD       1

 TOTAL OF       1OUTER ITERATIONS
  MAXIMUM CHANGE FOR EACH ITERATION:
   MAX. CHANGE        NODE  MAX. CHANGE        NODE  MAX. CHANGE        NODE  MAX. CHANGE        NODE  MAX. CHANGE        NODE
 ------------------------------------------------------------------------------------------------------------------------------------
    0.0000    ,          1

  MAXIMUM CHANGE FOR CLN NODE AT EACH ITERATION:
   MAX. CHANGE    CLN-CELL  MAX. CHANGE    CLN-CELL  MAX. CHANGE    CLN-CELL  MAX. CHANGE    CLN-CELL  MAX. CHANGE    CLN-CELL
 ------------------------------------------------------------------------------------------------------------------------------------
   0.28957E-04,          2
1
  VOLUMETRIC BUDGET FOR ENTIRE MODEL AT END OF TIME STEP      12 IN STRESS PERIOD       1
  ---------------------------------------------------------------------------------------

     CUMULATIVE VOLUMES      L**3       RATES FOR THIS TIME STEP      L**3/T
     ------------------                 ------------------------

           IN:                                      IN:
           ---                                      ---
             STORAGE =           0.0000               STORAGE =           0.0000
         CLN STORAGE =       6.6613E-15           CLN STORAGE =       3.8913E-13
       CONSTANT HEAD =           0.0000         CONSTANT HEAD =           0.0000
      CLN CONST HEAD =       6.0759E-04        CLN CONST HEAD =       2.8380E-02

            TOTAL IN =       6.0759E-04              TOTAL IN =       2.8380E-02

          OUT:                                     OUT:
          ----                                     ----
             STORAGE =           0.0000               STORAGE =           0.0000
         CLN STORAGE =       6.0608E-02           CLN STORAGE =       2.8379E-02
       CONSTANT HEAD =           0.0000         CONSTANT HEAD =           0.0000
      CLN CONST HEAD =           0.0000        CLN CONST HEAD =           0.0000

           TOTAL OUT =       6.0608E-02             TOTAL OUT =       2.8379E-02

            IN - OUT =      -6.0000E-02              IN - OUT =       8.2220E-07

 PERCENT DISCREPANCY =        -196.03     PERCENT DISCREPANCY =           0.00






          TIME SUMMARY AT END OF TIME STEP        12 IN STRESS PERIOD         1
                    SECONDS     MINUTES      HOURS       DAYS        YEARS
                    -----------------------------------------------------------
   TIME STEP LENGTH 2.85312E-03 4.75520E-05 7.92533E-07 3.30222E-08 9.04098E-11
 STRESS PERIOD TIME 2.13843E-02 3.56405E-04 5.94008E-06 2.47503E-07 6.77627E-10
         TOTAL TIME 2.13843E-02 3.56405E-04 5.94008E-06 2.47503E-07 6.77627E-10
1
 -------------------------------------------------------------------------------------
 
 SOLVING FOR HEAD 

 Outer-Iteration  Inner-Iteration  Backtracking  Number of        Incoming       Outgoing      Cutoff     Maximum Head Change      Maximum Head Change
     Number           Count           Flag       Backtracks       Residual       Residual      Residual            Value               Location
        1                             0             0          0.367113E-03     0.367113E-03   -1.00000    
        1                2                                                                                        0.00000                      1           GWF-node number
        1                2                                                                                       0.600379E-04                  2           CLN-node number
     1 CALLS TO SPARSE MATRIX SOLVER PACKAGE  IN FLOW TIME STEP      13 STRESS PERIOD       1

 TOTAL OF       1OUTER ITERATIONS
  MAXIMUM CHANGE FOR EACH ITERATION:
   MAX. CHANGE        NODE  MAX. CHANGE        NODE  MAX. CHANGE        NODE  MAX. CHANGE        NODE  MAX. CHANGE        NODE
 ------------------------------------------------------------------------------------------------------------------------------------
    0.0000    ,          1

  MAXIMUM CHANGE FOR CLN NODE AT EACH ITERATION:
   MAX. CHANGE    CLN-CELL  MAX. CHANGE    CLN-CELL  MAX. CHANGE    CLN-CELL  MAX. CHANGE    CLN-CELL  MAX. CHANGE    CLN-CELL
 ------------------------------------------------------------------------------------------------------------------------------------
   0.60038E-04,          2
1
  VOLUMETRIC BUDGET FOR ENTIRE MODEL AT END OF TIME STEP      13 IN STRESS PERIOD       1
  ---------------------------------------------------------------------------------------

     CUMULATIVE VOLUMES      L**3       RATES FOR THIS TIME STEP      L**3/T
     ------------------                 ------------------------

           IN:                                      IN:
           ---                                      ---
             STORAGE =           0.0000               STORAGE =           0.0000
         CLN STORAGE =       8.6597E-15           CLN STORAGE =       6.3675E-13
       CONSTANT HEAD =           0.0000         CONSTANT HEAD =           0.0000
      CLN CONST HEAD =       6.9659E-04        CLN CONST HEAD =       2.8358E-02

            TOTAL IN =       6.9659E-04              TOTAL IN =       2.8358E-02

          OUT:                                     OUT:
          ----                                     ----
             STORAGE =           0.0000               STORAGE =           0.0000
         CLN STORAGE =       6.0697E-02           CLN STORAGE =       2.8357E-02
       CONSTANT HEAD =           0.0000         CONSTANT HEAD =           0.0000
      CLN CONST HEAD =           0.0000        CLN CONST HEAD =           0.0000

           TOTAL OUT =       6.0697E-02             TOTAL OUT =       2.8357E-02

            IN - OUT =      -6.0000E-02              IN - OUT =       1.7043E-06

 PERCENT DISCREPANCY =        -195.46     PERCENT DISCREPANCY =           0.01






          TIME SUMMARY AT END OF TIME STEP        13 IN STRESS PERIOD         1
                    SECONDS     MINUTES      HOURS       DAYS        YEARS
                    -----------------------------------------------------------
   TIME STEP LENGTH 3.13843E-03 5.23072E-05 8.71786E-07 3.63244E-08 9.94508E-11
 STRESS PERIOD TIME 2.45227E-02 4.08712E-04 6.81187E-06 2.83828E-07 7.77078E-10
         TOTAL TIME 2.45227E-02 4.08712E-04 6.81187E-06 2.83828E-07 7.77078E-10
1
 -------------------------------------------------------------------------------------
 
 SOLVING FOR HEAD 

 Outer-Iteration  Inner-Iteration  Backtracking  Number of        Incoming       Outgoing      Cutoff     Maximum Head Change      Maximum Head Change
     Number           Count           Flag       Backtracks       Residual       Residual      Residual            Value               Location
        1                             0             0          0.120596E-03     0.120596E-03   -1.00000    
[...]
     Number           Count           Flag       Backtracks       Residual       Residual      Residual            Value               Location
        1                             0             0          0.753009E-13     0.753009E-13   -1.00000    
        1                1                                                                                        0.00000                      1           GWF-node number
        1                1                                                                                      -0.127301E-06                 11           CLN-node number
     1 CALLS TO SPARSE MATRIX SOLVER PACKAGE  IN FLOW TIME STEP     184 STRESS PERIOD       1

 TOTAL OF       1OUTER ITERATIONS
  MAXIMUM CHANGE FOR EACH ITERATION:
   MAX. CHANGE        NODE  MAX. CHANGE        NODE  MAX. CHANGE        NODE  MAX. CHANGE        NODE  MAX. CHANGE        NODE
 ------------------------------------------------------------------------------------------------------------------------------------
    0.0000    ,          1

  MAXIMUM CHANGE FOR CLN NODE AT EACH ITERATION:
   MAX. CHANGE    CLN-CELL  MAX. CHANGE    CLN-CELL  MAX. CHANGE    CLN-CELL  MAX. CHANGE    CLN-CELL  MAX. CHANGE    CLN-CELL
 ------------------------------------------------------------------------------------------------------------------------------------
  -0.12730E-06,         11
1
  VOLUMETRIC BUDGET FOR ENTIRE MODEL AT END OF TIME STEP     184 IN STRESS PERIOD       1
  ---------------------------------------------------------------------------------------

     CUMULATIVE VOLUMES      L**3       RATES FOR THIS TIME STEP      L**3/T
     ------------------                 ------------------------

           IN:                                      IN:
           ---                                      ---
             STORAGE =           0.0000               STORAGE =           0.0000
         CLN STORAGE =       2.7760E-02           CLN STORAGE =       5.1800E-08
       CONSTANT HEAD =           0.0000         CONSTANT HEAD =           0.0000
      CLN CONST HEAD =          39.9139        CLN CONST HEAD =       1.1620E-02

            TOTAL IN =          39.9417              TOTAL IN =       1.1620E-02

          OUT:                                     OUT:
          ----                                     ----
             STORAGE =           0.0000               STORAGE =           0.0000
         CLN STORAGE =           4.9808           CLN STORAGE =       5.2019E-08
       CONSTANT HEAD =           0.0000         CONSTANT HEAD =           0.0000
      CLN CONST HEAD =          35.0187        CLN CONST HEAD =       1.1620E-02

           TOTAL OUT =          39.9995             TOTAL OUT =       1.1620E-02

            IN - OUT =      -5.7812E-02              IN - OUT =      -1.7268E-09

 PERCENT DISCREPANCY =          -0.14     PERCENT DISCREPANCY =          -0.00






          TIME SUMMARY AT END OF TIME STEP       184 IN STRESS PERIOD         1
                    SECONDS     MINUTES      HOURS       DAYS        YEARS
                    -----------------------------------------------------------
   TIME STEP LENGTH  60.000      1.0000     1.66667E-02 6.94444E-04 1.90129E-06
 STRESS PERIOD TIME  3429.0      57.150     0.95251     3.96878E-02 1.08659E-04
         TOTAL TIME  3429.0      57.150     0.95251     3.96878E-02 1.08659E-04
1
 -------------------------------------------------------------------------------------
 
 SOLVING FOR HEAD 

 Outer-Iteration  Inner-Iteration  Backtracking  Number of        Incoming       Outgoing      Cutoff     Maximum Head Change      Maximum Head Change
     Number           Count           Flag       Backtracks       Residual       Residual      Residual            Value               Location
        1                             0             0          0.858907E-13     0.858907E-13   -1.00000    
        1                1                                                                                        0.00000                      1           GWF-node number
        1                1                                                                                       0.124286E-06                 82           CLN-node number
     1 CALLS TO SPARSE MATRIX SOLVER PACKAGE  IN FLOW TIME STEP     185 STRESS PERIOD       1

 TOTAL OF       1OUTER ITERATIONS
  MAXIMUM CHANGE FOR EACH ITERATION:
   MAX. CHANGE        NODE  MAX. CHANGE        NODE  MAX. CHANGE        NODE  MAX. CHANGE        NODE  MAX. CHANGE        NODE
 ------------------------------------------------------------------------------------------------------------------------------------
    0.0000    ,          1

  MAXIMUM CHANGE FOR CLN NODE AT EACH ITERATION:
   MAX. CHANGE    CLN-CELL  MAX. CHANGE    CLN-CELL  MAX. CHANGE    CLN-CELL  MAX. CHANGE    CLN-CELL  MAX. CHANGE    CLN-CELL
 ------------------------------------------------------------------------------------------------------------------------------------
   0.12429E-06,         82
1
  VOLUMETRIC BUDGET FOR ENTIRE MODEL AT END OF TIME STEP     185 IN STRESS PERIOD       1
  ---------------------------------------------------------------------------------------

     CUMULATIVE VOLUMES      L**3       RATES FOR THIS TIME STEP      L**3/T
     ------------------                 ------------------------

           IN:                                      IN:
           ---                                      ---
             STORAGE =           0.0000               STORAGE =           0.0000
         CLN STORAGE =       2.7764E-02           CLN STORAGE =       6.1932E-08
       CONSTANT HEAD =           0.0000         CONSTANT HEAD =           0.0000
      CLN CONST HEAD =          40.6111        CLN CONST HEAD =       1.1620E-02

            TOTAL IN =          40.6389              TOTAL IN =       1.1620E-02

          OUT:                                     OUT:
          ----                                     ----
             STORAGE =           0.0000               STORAGE =           0.0000
         CLN STORAGE =           4.9808           CLN STORAGE =       6.8218E-08
       CONSTANT HEAD =           0.0000         CONSTANT HEAD =           0.0000
      CLN CONST HEAD =          35.7159        CLN CONST HEAD =       1.1620E-02

           TOTAL OUT =          40.6967             TOTAL OUT =       1.1620E-02

            IN - OUT =      -5.7812E-02              IN - OUT =      -3.9423E-09

 PERCENT DISCREPANCY =          -0.14     PERCENT DISCREPANCY =          -0.00






          TIME SUMMARY AT END OF TIME STEP       185 IN STRESS PERIOD         1
                    SECONDS     MINUTES      HOURS       DAYS        YEARS
                    -----------------------------------------------------------
   TIME STEP LENGTH  60.000      1.0000     1.66667E-02 6.94444E-04 1.90129E-06
 STRESS PERIOD TIME  3489.0      58.150     0.96917     4.03822E-02 1.10561E-04
         TOTAL TIME  3489.0      58.150     0.96917     4.03822E-02 1.10561E-04
1
 -------------------------------------------------------------------------------------
 
 SOLVING FOR HEAD 

 Outer-Iteration  Inner-Iteration  Backtracking  Number of        Incoming       Outgoing      Cutoff     Maximum Head Change      Maximum Head Change
     Number           Count           Flag       Backtracks       Residual       Residual      Residual            Value               Location
        1                             0             0          0.104362E-12     0.104362E-12   -1.00000    
        1                1                                                                                        0.00000                      1           GWF-node number
        1                1                                                                                      -0.171080E-06                 76           CLN-node number
     1 CALLS TO SPARSE MATRIX SOLVER PACKAGE  IN FLOW TIME STEP     186 STRESS PERIOD       1

 TOTAL OF       1OUTER ITERATIONS
  MAXIMUM CHANGE FOR EACH ITERATION:
   MAX. CHANGE        NODE  MAX. CHANGE        NODE  MAX. CHANGE        NODE  MAX. CHANGE        NODE  MAX. CHANGE        NODE
 ------------------------------------------------------------------------------------------------------------------------------------
    0.0000    ,          1

  MAXIMUM CHANGE FOR CLN NODE AT EACH ITERATION:
   MAX. CHANGE    CLN-CELL  MAX. CHANGE    CLN-CELL  MAX. CHANGE    CLN-CELL  MAX. CHANGE    CLN-CELL  MAX. CHANGE    CLN-CELL
 ------------------------------------------------------------------------------------------------------------------------------------
  -0.17108E-06,         76
1
  VOLUMETRIC BUDGET FOR ENTIRE MODEL AT END OF TIME STEP     186 IN STRESS PERIOD       1
  ---------------------------------------------------------------------------------------

     CUMULATIVE VOLUMES      L**3       RATES FOR THIS TIME STEP      L**3/T
     ------------------                 ------------------------

           IN:                                      IN:
           ---                                      ---
             STORAGE =           0.0000               STORAGE =           0.0000
         CLN STORAGE =       2.7767E-02           CLN STORAGE =       5.5030E-08
       CONSTANT HEAD =           0.0000         CONSTANT HEAD =           0.0000
      CLN CONST HEAD =          41.3083        CLN CONST HEAD =       1.1620E-02

            TOTAL IN =          41.3361              TOTAL IN =       1.1620E-02

          OUT:                                     OUT:
          ----                                     ----
             STORAGE =           0.0000               STORAGE =           0.0000
         CLN STORAGE =           4.9808           CLN STORAGE =       6.3466E-08
       CONSTANT HEAD =           0.0000         CONSTANT HEAD =           0.0000
      CLN CONST HEAD =          36.4131        CLN CONST HEAD =       1.1620E-02

           TOTAL OUT =          41.3939             TOTAL OUT =       1.1620E-02

            IN - OUT =      -5.7812E-02              IN - OUT =       4.6376E-09

 PERCENT DISCREPANCY =          -0.14     PERCENT DISCREPANCY =           0.00






          TIME SUMMARY AT END OF TIME STEP       186 IN STRESS PERIOD         1
                    SECONDS     MINUTES      HOURS       DAYS        YEARS
                    -----------------------------------------------------------
   TIME STEP LENGTH  60.000      1.0000     1.66667E-02 6.94444E-04 1.90129E-06
 STRESS PERIOD TIME  3549.0      59.150     0.98584     4.10767E-02 1.12462E-04
         TOTAL TIME  3549.0      59.150     0.98584     4.10767E-02 1.12462E-04
1
 -------------------------------------------------------------------------------------
 
 SOLVING FOR HEAD 

 Outer-Iteration  Inner-Iteration  Backtracking  Number of        Incoming       Outgoing      Cutoff     Maximum Head Change      Maximum Head Change
     Number           Count           Flag       Backtracks       Residual       Residual      Residual            Value               Location
        1                             0             0          0.667778E-13     0.667778E-13   -1.00000    
        1                1                                                                                        0.00000                      1           GWF-node number
        1                1                                                                                      -0.185682E-06                 90           CLN-node number
     1 CALLS TO SPARSE MATRIX SOLVER PACKAGE  IN FLOW TIME STEP     187 STRESS PERIOD       1

 TOTAL OF       1OUTER ITERATIONS
  MAXIMUM CHANGE FOR EACH ITERATION:
   MAX. CHANGE        NODE  MAX. CHANGE        NODE  MAX. CHANGE        NODE  MAX. CHANGE        NODE  MAX. CHANGE        NODE
 ------------------------------------------------------------------------------------------------------------------------------------
    0.0000    ,          1

  MAXIMUM CHANGE FOR CLN NODE AT EACH ITERATION:
   MAX. CHANGE    CLN-CELL  MAX. CHANGE    CLN-CELL  MAX. CHANGE    CLN-CELL  MAX. CHANGE    CLN-CELL  MAX. CHANGE    CLN-CELL
 ------------------------------------------------------------------------------------------------------------------------------------
  -0.18568E-06,         90
 UBUDSVU SAVING "         STORAGE" ON UNIT  50 AT TIME STEP    187, STRESS PERIOD      1
 UBUDSV SAVING "     CLN STORAGE" ON UNIT 144 AT TIME STEP    187, STRESS PERIOD       1
 UBUDSVU SAVING "   CONSTANT HEAD" ON UNIT  50 AT TIME STEP    187, STRESS PERIOD      1
 UBUDSVU SAVING "   FLOW JA FACE " ON UNIT  50 AT TIME STEP    187, STRESS PERIOD      1
 UBUDSVU SAVING "             CLN" ON UNIT  50 AT TIME STEP    187, STRESS PERIOD      1
 UBUDSVU SAVING "  CLN CONST HEAD" ON UNIT 144 AT TIME STEP    187, STRESS PERIOD      1
 UBUDSVU SAVING "   FLOW CLN FACE" ON UNIT 144 AT TIME STEP    187, STRESS PERIOD      1
 UBUDSVU SAVING "             GWF" ON UNIT 144 AT TIME STEP    187, STRESS PERIOD      1
1
             HEADU IN LAYER       1 AT END OF TIME STEP     187 IN STRESS PERIOD       1 STRESS TIME    3600.00     TOTAL TIME    3600.00    
  -----------------------------------------------------------------------------------------------------------------------------------------
        1..    999.0       999.0       999.0       999.0       999.0       999.0       999.0       999.0       999.0       999.0    
       11..    999.0       999.0       999.0       999.0       999.0       999.0       999.0       999.0       999.0       999.0    
       21..    999.0       999.0       999.0       999.0       999.0       999.0       999.0       999.0       999.0       999.0    
       31..    999.0       999.0       999.0       999.0       999.0       999.0       999.0       999.0       999.0       999.0    
       41..    999.0       999.0       999.0       999.0       999.0       999.0       999.0       999.0       999.0       999.0    
       51..    999.0       999.0       999.0       999.0       999.0       999.0       999.0       999.0       999.0       999.0    
       61..    999.0       999.0       999.0       999.0       999.0       999.0       999.0       999.0       999.0       999.0    
       71..    999.0       999.0       999.0       999.0       999.0       999.0       999.0       999.0       999.0       999.0    
       81..    999.0       999.0       999.0       999.0       999.0       999.0       999.0       999.0       999.0       999.0    
       91..    999.0       999.0       999.0       999.0       999.0       999.0       999.0       999.0       999.0       999.0    
      101..    999.0    

 HEAD WILL BE SAVED ON UNIT       30 AT END OF TIME STEP      187, STRESS PERIOD        1

 DRAWDOWN WILL BE SAVED ON UNIT   31 AT END OF TIME STEP 187, STRESS PERIOD    1
1
         CLN HEADS IN LAYER   1 AT END OF TIME STEP  187 IN STRESS PERIOD    1
  ---------------------------------------------------------------------------

            1           2           3           4           5           6           7           8           9          10
           11          12          13          14          15          16          17          18          19          20
           21          22          23          24          25          26          27          28          29          30
           31          32          33          34          35          36          37          38          39          40
           41          42          43          44          45          46          47          48          49          50
           51          52          53          54          55          56          57          58          59          60
           61          62          63          64          65          66          67          68          69          70
           71          72          73          74          75          76          77          78          79          80
           81          82          83          84          85          86          87          88          89          90
           91          92          93          94          95          96          97          98          99         100
          101
 ........................................................................................................................
   1    2.050       2.040       2.030       2.020       2.010       2.000       1.990       1.980       1.970       1.960    
        1.950       1.940       1.930       1.920       1.910       1.900       1.890       1.880       1.870       1.860    
        1.850       1.840       1.830       1.820       1.810       1.800       1.790       1.780       1.770       1.760    
        1.750       1.740       1.730       1.720       1.710       1.700       1.690       1.680       1.670       1.660    
        1.650       1.640       1.630       1.620       1.610       1.600       1.590       1.580       1.570       1.560    
        1.550       1.540       1.530       1.520       1.510       1.500       1.490       1.480       1.470       1.460    
        1.450       1.440       1.430       1.420       1.410       1.400       1.390       1.380       1.370       1.360    
        1.350       1.340       1.330       1.320       1.310       1.300       1.290       1.280       1.270       1.260    
        1.250       1.240       1.230       1.220       1.210       1.200       1.190       1.180       1.170       1.160    
        1.150       1.140       1.130       1.119       1.109       1.098       1.087       1.075       1.062       1.044    
        1.010    

 CLN HEAD WILL BE SAVED ON UNIT  145 AT END OF TIME STEP 187, STRESS PERIOD    1

 CLN DRAWDOWN WILL BE SAVED ON UNIT  146 AT END OF TIME STEP 187, STRESS PERIOD    1
1
  VOLUMETRIC BUDGET FOR ENTIRE MODEL AT END OF TIME STEP     187 IN STRESS PERIOD       1
  ---------------------------------------------------------------------------------------

     CUMULATIVE VOLUMES      L**3       RATES FOR THIS TIME STEP      L**3/T
     ------------------                 ------------------------

           IN:                                      IN:
           ---                                      ---
             STORAGE =           0.0000               STORAGE =           0.0000
         CLN STORAGE =       2.7770E-02           CLN STORAGE =       6.5137E-08
       CONSTANT HEAD =           0.0000         CONSTANT HEAD =           0.0000
      CLN CONST HEAD =          41.9006        CLN CONST HEAD =       1.1620E-02

            TOTAL IN =          41.9284              TOTAL IN =       1.1620E-02

          OUT:                                     OUT:
          ----                                     ----
             STORAGE =           0.0000               STORAGE =           0.0000
         CLN STORAGE =           4.9808           CLN STORAGE =       5.8810E-08
       CONSTANT HEAD =           0.0000         CONSTANT HEAD =           0.0000
      CLN CONST HEAD =          37.0054        CLN CONST HEAD =       1.1620E-02

           TOTAL OUT =          41.9862             TOTAL OUT =       1.1620E-02

            IN - OUT =      -5.7812E-02              IN - OUT =       2.2217E-09

 PERCENT DISCREPANCY =          -0.14     PERCENT DISCREPANCY =           0.00






          TIME SUMMARY AT END OF TIME STEP       187 IN STRESS PERIOD         1
                    SECONDS     MINUTES      HOURS       DAYS        YEARS
                    -----------------------------------------------------------
   TIME STEP LENGTH  50.976     0.84959     1.41599E-02 5.89996E-04 1.61532E-06
 STRESS PERIOD TIME  3600.0      60.000      1.0000     4.16667E-02 1.14077E-04
         TOTAL TIME  3600.0      60.000      1.0000     4.16667E-02 1.14077E-04
1

 Run end date and time (yyyy/mm/dd hh:mm:ss): 2023/12/13  7:25:48
 Elapsed run time:  0.427 Seconds

