                                  USG-TRANSPORT USG-TRANSPORT 
       FURTHER  DEVELOPMENTS BASED ON MODFLOW-USG
                      VERSION USG-TRANSPORT VERSION 2.02.0

 LIST FILE: swf1.lst
                         UNIT    7

 OPENING swf1.bas
 FILE TYPE:BAS6   UNIT    1   STATUS:OLD    
 FORMAT:FORMATTED              ACCESS:SEQUENTIAL          

 OPENING swf1.sms
 FILE TYPE:SMS   UNIT   19   STATUS:OLD    
 FORMAT:FORMATTED              ACCESS:SEQUENTIAL          

 OPENING swf1.dis
 FILE TYPE:DISU   UNIT   29   STATUS:OLD    
 FORMAT:FORMATTED              ACCESS:SEQUENTIAL          

 OPENING swf1.oc
 FILE TYPE:OC   UNIT   22   STATUS:OLD    
 FORMAT:FORMATTED              ACCESS:SEQUENTIAL          

 OPENING swf1.chd
 FILE TYPE:CHD   UNIT   23   STATUS:OLD    
 FORMAT:FORMATTED              ACCESS:SEQUENTIAL          

 OPENING swf1.lpf
 FILE TYPE:LPF   UNIT   11   STATUS:OLD    
 FORMAT:FORMATTED              ACCESS:SEQUENTIAL          

 OPENING swf1.swf
 FILE TYPE:SWF   UNIT   65   STATUS:OLD    
 FORMAT:FORMATTED              ACCESS:SEQUENTIAL          

 OPENING swf1.gwf.cbb
 FILE TYPE:DATA(BINARY)   UNIT   50   STATUS:UNKNOWN
 FORMAT:UNFORMATTED            ACCESS:STREAM              

 OPENING swf1.gwf.hds
 FILE TYPE:DATA(BINARY)   UNIT   30   STATUS:UNKNOWN
 FORMAT:UNFORMATTED            ACCESS:STREAM              

 OPENING swf1.gwf.ddn
 FILE TYPE:DATA(BINARY)   UNIT   31   STATUS:UNKNOWN
 FORMAT:UNFORMATTED            ACCESS:STREAM              

 OPENING swf1.swf.cbb
 FILE TYPE:DATA(BINARY)   UNIT  144   STATUS:UNKNOWN
 FORMAT:UNFORMATTED            ACCESS:STREAM              

 OPENING swf1.swf.hds
 FILE TYPE:DATA(BINARY)   UNIT  145   STATUS:UNKNOWN
 FORMAT:UNFORMATTED            ACCESS:STREAM              

 OPENING swf1.swf.ddn
 FILE TYPE:DATA(BINARY)   UNIT  146   STATUS:UNKNOWN
 FORMAT:UNFORMATTED            ACCESS:STREAM              

 BAS -- BASIC PACKAGEUSG-TRANSPORT USG-TRANSPORT VERSION 2.02.0             INPUT READ FROM UNIT    1
 
 # MODFLOW-USGs Basic Package                                                    
 # MODFLOW Data Set Created by Groundwater Vistas                                
 #
 THE FREE FORMAT OPTION HAS BEEN SELECTED
 THE UNSTRUCTURED GRID OPTION HAS BEEN SELECTED

 DIS -- UNSTRUCTURED GRID DISCRETIZATION PACKAGE, VERSION 1 : 5/17/2010 - INPUT READ FROM UNIT   29
        101 NODES         1 NLAY       301 NJAG  VERT. SUBDISCRETIZATION INDEX, IVSD = -1
 INDEX FOR INPUT OF UNSTRUCTURED, FINITE-VOLUME CONNECTIVITY INFORMATION, IDSYMRD =   0
    1 STRESS PERIOD(S) IN SIMULATION
 MODEL TIME UNIT IS SECONDS
 MODEL LENGTH UNIT IS METERS
  Confining bed flag for each layer:
   0

 SWF -- SURFACE WATER FLOW (SWF) DISCRETIZATION PROCESS, VERSION 1, 10/1/2023 INPUT READ FROM UNIT   65
 # GRAVITY 9.81  VISCOSITY 1.0E-6   ! dimension & output options & G/V



                                 IA
 READING ON UNIT   65 WITH FORMAT: (FREE)              



                                 JA
 READING ON UNIT   65 WITH FORMAT: (FREE)              

 DIS -- UNSTRUCTURED GRID DISCRETIZATION PACKAGE, VERSION 1 : 5/17/2010 - INPUT READ FROM UNIT   29

   NO. OF NODES PER LAYER =       101



                                TOP FOR LAYER   1
 READING ON UNIT   29 WITH FORMAT: (FREE)              



                                BOT FOR LAYER   1
 READING ON UNIT   29 WITH FORMAT: (FREE)              



                               AREA FOR LAYER   1
 READING ON UNIT   29 WITH FORMAT: (FREE)              



                                 IA
 READING ON UNIT   29 WITH FORMAT: (FREE)              



                                 JA
 READING ON UNIT   29 WITH FORMAT: (FREE)              



               CONNECTION LENGTH 12 FOR LAYER   1
 READING ON UNIT   29 WITH FORMAT: (FREE)              



                 PERPENDICULAR AREA
 READING ON UNIT   29 WITH FORMAT: (FREE)              


 STRESS PERIOD     LENGTH       TIME STEPS     MULTIPLIER FOR DELT    SS FLAG
 ----------------------------------------------------------------------------
        1         3600.000        100                    1.100         TR

 TRANSIENT SIMULATION






                     BOUNDARY ARRAY FOR LAYER   1
 READING ON UNIT    1 WITH FORMAT: (FREE)              

 AQUIFER HEAD WILL BE SET TO   999.00     AT ALL NO-FLOW NODES (IBOUND=0).

             INITIAL HEAD =   100.000     FOR LAYER   1

 ADAPTIVE TIME STEPPING PERFORMED. ATS VARIABLES WILL BE READ.
 -------------------------------------------------------------

          OUTPUT WILL BE PRINTED AT FOLLOWING       3 TIMES
          --------------------------------------------------
   60.00000       300.0000       3600.000    

 OUTPUT CONTROL IS SPECIFIED ONLY AT TIME STEPS FOR WHICH OUTPUT IS DESIRED
 HEAD PRINT FORMAT CODE IS   0    DRAWDOWN PRINT FORMAT CODE IS   0
 HEADS WILL BE SAVED ON UNIT   30    DRAWDOWNS WILL BE SAVED ON UNIT   31

 LPF -- LAYER-PROPERTY FLOW PACKAGE, VERSION 7, 5/2/2005
         INPUT READ FROM UNIT   11
 # MODFLOW-USG Layer Property Flow (LPF) Package
 CELL-BY-CELL FLOWS WILL BE SAVED ON UNIT   50
 HEAD AT CELLS THAT CONVERT TO DRY= -1.00000E+30
 No named parameters
 IKCFLAG=0, NODAL INPUT OF HY AND CV
 CONSTANTCV OPTION:
 Constant vertical conductance for convertible layers
 NOVFC OPTION:
 Do not apply the vertical flow correction

   LAYER FLAGS:
 LAYER       LAYTYP        LAYAVG         CHANI        LAYVKA        LAYWET
 ---------------------------------------------------------------------------
    1             4             0     1.000E+00             0             0

   INTERPRETATION OF LAYER FLAGS:
                        INTERBLOCK     HORIZONTAL    DATA IN
         LAYER TYPE   TRANSMISSIVITY   ANISOTROPY   ARRAY VKA   WETTABILITY
 LAYER      (LAYTYP)      (LAYAVG)       (CHANI)      (LAYVKA)      (LAYWET)
 ---------------------------------------------------------------------------
    1     UPSTREAM       HARMONIC     1.000E+00    VERTICAL K  NON-WETTABLE

 WETTING CAPABILITY IS NOT ACTIVE IN ANY LAYER



              HYD. COND. ALONG ROWS FOR LAYER   1
 READING ON UNIT   11 WITH FORMAT: (FREE)              



                VERTICAL HYD. COND. FOR LAYER   1
 READING ON UNIT   11 WITH FORMAT: (FREE)              



                   SPECIFIC STORAGE FOR LAYER   1
 READING ON UNIT   11 WITH FORMAT: (FREE)              



                     SPECIFIC YIELD FOR LAYER   1
 READING ON UNIT   11 WITH FORMAT: (FREE)              

 SWF -- SURFACE DOMAIN FLOW PACKAGE, VERSION 1, 5/17/2010 INPUT READ FROM UNIT   65



                SWF BOUNDARY ARRAY  FOR LAYER   1
 READING ON UNIT   65 WITH FORMAT: (FREE)              



                SWF BOUNDARY ARRAY  FOR LAYER   1
 READING ON UNIT   65 WITH FORMAT: (FREE)              

      SWF BOUNDARY ARRAY  =         1



                  SWF INITIAL HEAD 
 READING ON UNIT   65 WITH FORMAT: (FREE)              

 CHD -- TIME-VARIANT SPECIFIED-HEAD OPTION, VERSION 7, 5/2/2005
 INPUT READ FROM UNIT   23
 # MODFLOW-USGs Constant-Head Boundary Package (CHD)
 No named parameters
 MAXIMUM OF      2 TIME-VARIANT SPECIFIED-HEAD CELLS AT ONE TIME


     0 TIME-VARIANT SPECIFIED-HEAD PARAMETERS

 SMS -- SPARSE MATRIX SOLVER PACKAGE, VERSION 7, 5/2/2005
         INPUT READ FROM UNIT 19
 No named parameters
  ALL SOLVER INPUT DATA WILL BE READ FROM THE SOLVER INPUT FILE. 
 ONLY ACTIVE NODES WILL BE PASSED TO THE SOLVER
 BOTTOM DAMPING APPLIED TO EACH LINEAR SOLUTION
 OUTER ITERATION CONVERGENCE CRITERION (HCLOSE) =    0.100000E-02
 INNER ITERATION CONVERGENCE CRITERION (HICLOSE) =    0.100000E-06
 MAXIMUM NUMBER OF OUTER ITERATIONS (MXITER)     =       250
 MAXIMUM NUMBER OF INNER ITERATIONS (ITER1)      =       600
 SOLVER PRINTOUT INDEX             (IPRSMS)      =         1
 NONLINEAR ITERATION METHOD    (NONLINMETH)      =         1
 LINEAR SOLUTION METHOD           (LINMETH)      =         1
 D-B-D WEIGHT REDUCTION FACTOR      (THETA)      =    0.700000E+00
 D-B-D WEIGHT INCREASE INCREMENT    (KAPPA)      =    0.700000E-01
 D-B-D PREVIOUS HISTORY FACTOR      (GAMMA)      =    0.100000E+00
 MOMENTUM TERM                  (AMOMENTUM)      =    0.000000E+00
 MAXIMUM NUMBER OF BACKTRACKS    (NUMTRACK)      =       200
 BACKTRACKING TOLERANCE FACTOR       (BTOL)      =    0.110000E+01
 BACKTRACKING REDUCTION FACTOR     (BREDUC)      =    0.200000E+00
 BACKTRACKING RESIDUAL LIMIT      (RES_LIM)      =    0.100000E+01
 TRUNCATED NEWTON FLAG     (ITRUNCNEWTON)      =         0
 ***Newton Linearization will be used***
 
 ***XMD linear solver will be used***
 XMD -- LINEAR SOLUTION BY XMD PACKAGE VERSION 1.30
     BY MOTOMU IBARAKI, OHIO STATE UNIVERSITY, COLOMBUS, OH
                 INPUT READ FROM UNIT 19
 ACCELERATION METHOD                    (IACL) =         1
 EQUATION ORDERING FLAG               (NORDER) =         0
 LEVEL OF FILL                         (LEVEL) =         7
 MAXIMUM NUMBER OF ORTHOGONALIZATIONS  (NORTH) =        14
 INDEX FOR USING REDUCED SYSTEM      (IREDSYS) =         0
 RESID. REDUCTION CONVERGE CRITERION  (RRCTOL) =  0.000000E+00
 INDEX FOR USING DROP TOLERANCE     (IDROPTOL) =         1
 DROP TOLERANCE VALUE                 ((EPSRN) =  0.100000E-02
 

 OUTPUT CONTROL FOR STRESS PERIOD        1
    DELTAT   0.100000E-02
    TMINAT   0.100000E-04
    TMAXAT    60.0000    
    TADJAT    1.10000    
    TCUTAT    2.00000    
    SAVE HEAD FOR ALL LAYERS
    PRINT HEAD FOR ALL LAYERS
    SAVE DRAWDOWN FOR ALL LAYERS
    SAVE BUDGET
    PRINT BUDGET
1
                            STRESS PERIOD NO.    1, LENGTH =   3600.000    
                            -----------------------------------------------

                            INITIAL TIME STEP SIZE =  0.1000000E-02

 CHD -- TIME-VARIANT SPECIFIED-HEAD OPTION, VERSION 7, 5/2/2005
 INPUT READ FROM UNIT   23

 CHD NO.        NODE           START HEAD        END HEAD         
 -----------------------------------------------------------------
        1          102       2.050           2.050    
        2          202       1.010           1.010    


      2 TIME-VARIANT SPECIFIED-HEAD CELLS
 -------------------------------------------------------------------------------------
 
 SOLVING FOR HEAD 

 Outer-Iteration  Inner-Iteration  Backtracking  Number of        Incoming       Outgoing      Cutoff     Maximum Head Change      Maximum Head Change
     Number           Count           Flag       Backtracks       Residual       Residual      Residual            Value               Location
        1                             0             0          0.807169E-01     0.807169E-01   -1.00000    
        1                2                                                                                        0.00000                      1           GWF-node number
        1                2                                                                                       0.502621E-04                  2           CLN-node number


     1 CALLS TO SPARSE MATRIX SOLVER PACKAGE  IN FLOW TIME STEP       1 STRESS PERIOD       1

 TOTAL OF       1OUTER ITERATIONS
  MAXIMUM CHANGE FOR EACH ITERATION:
   MAX. CHANGE        NODE  MAX. CHANGE        NODE  MAX. CHANGE        NODE  MAX. CHANGE        NODE  MAX. CHANGE        NODE
 ------------------------------------------------------------------------------------------------------------------------------------
    0.0000    ,          1
1
  VOLUMETRIC BUDGET FOR ENTIRE MODEL AT END OF TIME STEP       1 IN STRESS PERIOD       1
  ---------------------------------------------------------------------------------------

     CUMULATIVE VOLUMES      L**3       RATES FOR THIS TIME STEP      L**3/T
     ------------------                 ------------------------

           IN:                                      IN:
           ---                                      ---
             STORAGE =           0.0000               STORAGE =           0.0000
         SWF STORAGE =           0.0000           SWF STORAGE =           0.0000
       CONSTANT HEAD =           0.0000         CONSTANT HEAD =           0.0000
      SWF CONST HEAD =       2.8387E-04        SWF CONST HEAD =           0.2839

            TOTAL IN =       2.8387E-04              TOTAL IN =           0.2839

          OUT:                                     OUT:
          ----                                     ----
             STORAGE =           0.0000               STORAGE =           0.0000
         SWF STORAGE =       1.9445E-04           SWF STORAGE =           0.1944
       CONSTANT HEAD =           0.0000         CONSTANT HEAD =           0.0000
      SWF CONST HEAD =       8.0518E-12        SWF CONST HEAD =       8.0518E-09

           TOTAL OUT =       1.9445E-04             TOTAL OUT =           0.1944

            IN - OUT =       8.9420E-05              IN - OUT =       8.9420E-02

 PERCENT DISCREPANCY =          37.39     PERCENT DISCREPANCY =          37.39






          TIME SUMMARY AT END OF TIME STEP         1 IN STRESS PERIOD         1
                    SECONDS     MINUTES      HOURS       DAYS        YEARS
                    -----------------------------------------------------------
   TIME STEP LENGTH 1.00000E-03 1.66667E-05 2.77778E-07 1.15741E-08 3.16881E-11
 STRESS PERIOD TIME 1.00000E-03 1.66667E-05 2.77778E-07 1.15741E-08 3.16881E-11
         TOTAL TIME 1.00000E-03 1.66667E-05 2.77778E-07 1.15741E-08 3.16881E-11
1
 -------------------------------------------------------------------------------------
 
 SOLVING FOR HEAD 

 Outer-Iteration  Inner-Iteration  Backtracking  Number of        Incoming       Outgoing      Cutoff     Maximum Head Change      Maximum Head Change
     Number           Count           Flag       Backtracks       Residual       Residual      Residual            Value               Location
        1                             0             0          0.114952E-01     0.114952E-01   -1.00000    
        1                2                                                                                        0.00000                      1           GWF-node number
        1                2                                                                                       0.204044E-04                  2           CLN-node number
     1 CALLS TO SPARSE MATRIX SOLVER PACKAGE  IN FLOW TIME STEP       2 STRESS PERIOD       1

 TOTAL OF       1OUTER ITERATIONS
  MAXIMUM CHANGE FOR EACH ITERATION:
   MAX. CHANGE        NODE  MAX. CHANGE        NODE  MAX. CHANGE        NODE  MAX. CHANGE        NODE  MAX. CHANGE        NODE
 ------------------------------------------------------------------------------------------------------------------------------------
    0.0000    ,          1
1
  VOLUMETRIC BUDGET FOR ENTIRE MODEL AT END OF TIME STEP       2 IN STRESS PERIOD       1
  ---------------------------------------------------------------------------------------

     CUMULATIVE VOLUMES      L**3       RATES FOR THIS TIME STEP      L**3/T
     ------------------                 ------------------------

           IN:                                      IN:
           ---                                      ---
             STORAGE =           0.0000               STORAGE =           0.0000
         SWF STORAGE =           0.0000           SWF STORAGE =           0.0000
       CONSTANT HEAD =           0.0000         CONSTANT HEAD =           0.0000
      SWF CONST HEAD =       5.9615E-04        SWF CONST HEAD =           0.2839

            TOTAL IN =       5.9615E-04              TOTAL IN =           0.2839

          OUT:                                     OUT:
          ----                                     ----
             STORAGE =           0.0000               STORAGE =           0.0000
         SWF STORAGE =       4.7977E-04           SWF STORAGE =           0.2594
       CONSTANT HEAD =           0.0000         CONSTANT HEAD =           0.0000
      SWF CONST HEAD =       8.0518E-12        SWF CONST HEAD =           0.0000

           TOTAL OUT =       4.7977E-04             TOTAL OUT =           0.2594

            IN - OUT =       1.1638E-04              IN - OUT =       2.4505E-02

 PERCENT DISCREPANCY =          21.63     PERCENT DISCREPANCY =           9.02






          TIME SUMMARY AT END OF TIME STEP         2 IN STRESS PERIOD         1
                    SECONDS     MINUTES      HOURS       DAYS        YEARS
                    -----------------------------------------------------------
   TIME STEP LENGTH 1.10000E-03 1.83333E-05 3.05556E-07 1.27315E-08 3.48569E-11
 STRESS PERIOD TIME 2.10000E-03 3.50000E-05 5.83333E-07 2.43056E-08 6.65450E-11
         TOTAL TIME 2.10000E-03 3.50000E-05 5.83333E-07 2.43056E-08 6.65450E-11
1
 -------------------------------------------------------------------------------------
 
 SOLVING FOR HEAD 

 Outer-Iteration  Inner-Iteration  Backtracking  Number of        Incoming       Outgoing      Cutoff     Maximum Head Change      Maximum Head Change
     Number           Count           Flag       Backtracks       Residual       Residual      Residual            Value               Location
        1                             0             0          0.436166E-01     0.436166E-01   -1.00000    
        1                2                                                                                        0.00000                      1           GWF-node number
        1                2                                                                                       0.434095E-04                  2           CLN-node number
     1 CALLS TO SPARSE MATRIX SOLVER PACKAGE  IN FLOW TIME STEP       3 STRESS PERIOD       1

 TOTAL OF       1OUTER ITERATIONS
  MAXIMUM CHANGE FOR EACH ITERATION:
   MAX. CHANGE        NODE  MAX. CHANGE        NODE  MAX. CHANGE        NODE  MAX. CHANGE        NODE  MAX. CHANGE        NODE
 ------------------------------------------------------------------------------------------------------------------------------------
    0.0000    ,          1
1
  VOLUMETRIC BUDGET FOR ENTIRE MODEL AT END OF TIME STEP       3 IN STRESS PERIOD       1
  ---------------------------------------------------------------------------------------

     CUMULATIVE VOLUMES      L**3       RATES FOR THIS TIME STEP      L**3/T
     ------------------                 ------------------------

           IN:                                      IN:
           ---                                      ---
             STORAGE =           0.0000               STORAGE =           0.0000
         SWF STORAGE =           0.0000           SWF STORAGE =           0.0000
       CONSTANT HEAD =           0.0000         CONSTANT HEAD =           0.0000
      SWF CONST HEAD =       9.3947E-04        SWF CONST HEAD =           0.2837

            TOTAL IN =       9.3947E-04              TOTAL IN =           0.2837

          OUT:                                     OUT:
          ----                                     ----
             STORAGE =           0.0000               STORAGE =           0.0000
         SWF STORAGE =       7.7441E-04           SWF STORAGE =           0.2435
       CONSTANT HEAD =           0.0000         CONSTANT HEAD =           0.0000
      SWF CONST HEAD =       8.0518E-12        SWF CONST HEAD =           0.0000

           TOTAL OUT =       7.7441E-04             TOTAL OUT =           0.2435

            IN - OUT =       1.6506E-04              IN - OUT =       4.0237E-02

 PERCENT DISCREPANCY =          19.26     PERCENT DISCREPANCY =          15.26






          TIME SUMMARY AT END OF TIME STEP         3 IN STRESS PERIOD         1
                    SECONDS     MINUTES      HOURS       DAYS        YEARS
                    -----------------------------------------------------------
   TIME STEP LENGTH 1.21000E-03 2.01667E-05 3.36111E-07 1.40046E-08 3.83426E-11
 STRESS PERIOD TIME 3.31000E-03 5.51667E-05 9.19445E-07 3.83102E-08 1.04888E-10
         TOTAL TIME 3.31000E-03 5.51667E-05 9.19445E-07 3.83102E-08 1.04888E-10
1
 -------------------------------------------------------------------------------------
 
 SOLVING FOR HEAD 

 Outer-Iteration  Inner-Iteration  Backtracking  Number of        Incoming       Outgoing      Cutoff     Maximum Head Change      Maximum Head Change
     Number           Count           Flag       Backtracks       Residual       Residual      Residual            Value               Location
        1                             0             0          0.170930E-01     0.170930E-01   -1.00000    
        1                2                                                                                        0.00000                      1           GWF-node number
        1                2                                                                                       0.295019E-04                  2           CLN-node number
     1 CALLS TO SPARSE MATRIX SOLVER PACKAGE  IN FLOW TIME STEP       4 STRESS PERIOD       1

 TOTAL OF       1OUTER ITERATIONS
  MAXIMUM CHANGE FOR EACH ITERATION:
   MAX. CHANGE        NODE  MAX. CHANGE        NODE  MAX. CHANGE        NODE  MAX. CHANGE        NODE  MAX. CHANGE        NODE
 ------------------------------------------------------------------------------------------------------------------------------------
    0.0000    ,          1
1
  VOLUMETRIC BUDGET FOR ENTIRE MODEL AT END OF TIME STEP       4 IN STRESS PERIOD       1
  ---------------------------------------------------------------------------------------

     CUMULATIVE VOLUMES      L**3       RATES FOR THIS TIME STEP      L**3/T
     ------------------                 ------------------------

           IN:                                      IN:
           ---                                      ---
             STORAGE =           0.0000               STORAGE =           0.0000
         SWF STORAGE =           0.0000           SWF STORAGE =           0.0000
       CONSTANT HEAD =           0.0000         CONSTANT HEAD =           0.0000
      SWF CONST HEAD =       1.3171E-03        SWF CONST HEAD =           0.2837

            TOTAL IN =       1.3171E-03              TOTAL IN =           0.2837

          OUT:                                     OUT:
          ----                                     ----
             STORAGE =           0.0000               STORAGE =           0.0000
         SWF STORAGE =       1.1227E-03           SWF STORAGE =           0.2617
       CONSTANT HEAD =           0.0000         CONSTANT HEAD =           0.0000
      SWF CONST HEAD =       8.0518E-12        SWF CONST HEAD =           0.0000

           TOTAL OUT =       1.1227E-03             TOTAL OUT =           0.2617

            IN - OUT =       1.9438E-04              IN - OUT =       2.2024E-02

 PERCENT DISCREPANCY =          15.93     PERCENT DISCREPANCY =           8.08






          TIME SUMMARY AT END OF TIME STEP         4 IN STRESS PERIOD         1
                    SECONDS     MINUTES      HOURS       DAYS        YEARS
                    -----------------------------------------------------------
   TIME STEP LENGTH 1.33100E-03 2.21833E-05 3.69722E-07 1.54051E-08 4.21768E-11
 STRESS PERIOD TIME 4.64100E-03 7.73500E-05 1.28917E-06 5.37153E-08 1.47064E-10
         TOTAL TIME 4.64100E-03 7.73500E-05 1.28917E-06 5.37153E-08 1.47064E-10
1
 -------------------------------------------------------------------------------------
 
 SOLVING FOR HEAD 

 Outer-Iteration  Inner-Iteration  Backtracking  Number of        Incoming       Outgoing      Cutoff     Maximum Head Change      Maximum Head Change
     Number           Count           Flag       Backtracks       Residual       Residual      Residual            Value               Location
        1                             0             0          0.342467E-01     0.342467E-01   -1.00000    
        1                2                                                                                        0.00000                      1           GWF-node number
        1                2                                                                                       0.455651E-04                  2           CLN-node number
     1 CALLS TO SPARSE MATRIX SOLVER PACKAGE  IN FLOW TIME STEP       5 STRESS PERIOD       1

 TOTAL OF       1OUTER ITERATIONS
  MAXIMUM CHANGE FOR EACH ITERATION:
   MAX. CHANGE        NODE  MAX. CHANGE        NODE  MAX. CHANGE        NODE  MAX. CHANGE        NODE  MAX. CHANGE        NODE
 ------------------------------------------------------------------------------------------------------------------------------------
    0.0000    ,          1
1
  VOLUMETRIC BUDGET FOR ENTIRE MODEL AT END OF TIME STEP       5 IN STRESS PERIOD       1
  ---------------------------------------------------------------------------------------

     CUMULATIVE VOLUMES      L**3       RATES FOR THIS TIME STEP      L**3/T
     ------------------                 ------------------------

           IN:                                      IN:
           ---                                      ---
             STORAGE =           0.0000               STORAGE =           0.0000
         SWF STORAGE =           0.0000           SWF STORAGE =           0.0000
       CONSTANT HEAD =           0.0000         CONSTANT HEAD =           0.0000
      SWF CONST HEAD =       1.7322E-03        SWF CONST HEAD =           0.2836

            TOTAL IN =       1.7322E-03              TOTAL IN =           0.2836

          OUT:                                     OUT:
          ----                                     ----
             STORAGE =           0.0000               STORAGE =           0.0000
         SWF STORAGE =       1.4977E-03           SWF STORAGE =           0.2561
       CONSTANT HEAD =           0.0000         CONSTANT HEAD =           0.0000
      SWF CONST HEAD =       8.0518E-12        SWF CONST HEAD =           0.0000

           TOTAL OUT =       1.4977E-03             TOTAL OUT =           0.2561

            IN - OUT =       2.3450E-04              IN - OUT =       2.7407E-02

 PERCENT DISCREPANCY =          14.52     PERCENT DISCREPANCY =          10.16






          TIME SUMMARY AT END OF TIME STEP         5 IN STRESS PERIOD         1
                    SECONDS     MINUTES      HOURS       DAYS        YEARS
                    -----------------------------------------------------------
   TIME STEP LENGTH 1.46410E-03 2.44017E-05 4.06695E-07 1.69456E-08 4.63945E-11
 STRESS PERIOD TIME 6.10510E-03 1.01752E-04 1.69586E-06 7.06609E-08 1.93459E-10
         TOTAL TIME 6.10510E-03 1.01752E-04 1.69586E-06 7.06609E-08 1.93459E-10
1
 -------------------------------------------------------------------------------------
 
 SOLVING FOR HEAD 

 Outer-Iteration  Inner-Iteration  Backtracking  Number of        Incoming       Outgoing      Cutoff     Maximum Head Change      Maximum Head Change
     Number           Count           Flag       Backtracks       Residual       Residual      Residual            Value               Location
        1                             0             0          0.197527E-01     0.197527E-01   -1.00000    
        1                2                                                                                        0.00000                      1           GWF-node number
        1                2                                                                                       0.376408E-04                  2           CLN-node number
     1 CALLS TO SPARSE MATRIX SOLVER PACKAGE  IN FLOW TIME STEP       6 STRESS PERIOD       1

 TOTAL OF       1OUTER ITERATIONS
  MAXIMUM CHANGE FOR EACH ITERATION:
   MAX. CHANGE        NODE  MAX. CHANGE        NODE  MAX. CHANGE        NODE  MAX. CHANGE        NODE  MAX. CHANGE        NODE
 ------------------------------------------------------------------------------------------------------------------------------------
    0.0000    ,          1
1
  VOLUMETRIC BUDGET FOR ENTIRE MODEL AT END OF TIME STEP       6 IN STRESS PERIOD       1
  ---------------------------------------------------------------------------------------

     CUMULATIVE VOLUMES      L**3       RATES FOR THIS TIME STEP      L**3/T
     ------------------                 ------------------------

           IN:                                      IN:
           ---                                      ---
             STORAGE =           0.0000               STORAGE =           0.0000
         SWF STORAGE =       2.5548E-10           SWF STORAGE =       1.5863E-07
       CONSTANT HEAD =           0.0000         CONSTANT HEAD =           0.0000
      SWF CONST HEAD =       2.1888E-03        SWF CONST HEAD =           0.2835

            TOTAL IN =       2.1888E-03              TOTAL IN =           0.2835

          OUT:                                     OUT:
          ----                                     ----
             STORAGE =           0.0000               STORAGE =           0.0000
         SWF STORAGE =       1.9241E-03           SWF STORAGE =           0.2647
       CONSTANT HEAD =           0.0000         CONSTANT HEAD =           0.0000
      SWF CONST HEAD =       8.0518E-12        SWF CONST HEAD =           0.0000

           TOTAL OUT =       1.9241E-03             TOTAL OUT =           0.2647

            IN - OUT =       2.6470E-04              IN - OUT =       1.8751E-02

 PERCENT DISCREPANCY =          12.87     PERCENT DISCREPANCY =           6.84






          TIME SUMMARY AT END OF TIME STEP         6 IN STRESS PERIOD         1
                    SECONDS     MINUTES      HOURS       DAYS        YEARS
                    -----------------------------------------------------------
   TIME STEP LENGTH 1.61051E-03 2.68418E-05 4.47364E-07 1.86402E-08 5.10340E-11
 STRESS PERIOD TIME 7.71561E-03 1.28594E-04 2.14323E-06 8.93010E-08 2.44493E-10
         TOTAL TIME 7.71561E-03 1.28594E-04 2.14323E-06 8.93010E-08 2.44493E-10
1
 -------------------------------------------------------------------------------------
 
 SOLVING FOR HEAD 

 Outer-Iteration  Inner-Iteration  Backtracking  Number of        Incoming       Outgoing      Cutoff     Maximum Head Change      Maximum Head Change
     Number           Count           Flag       Backtracks       Residual       Residual      Residual            Value               Location
        1                             0             0          0.299287E-01     0.299287E-01   -1.00000    
        1                2                                                                                        0.00000                      1           GWF-node number
        1                2                                                                                       0.505325E-04                  2           CLN-node number
     1 CALLS TO SPARSE MATRIX SOLVER PACKAGE  IN FLOW TIME STEP       7 STRESS PERIOD       1

 TOTAL OF       1OUTER ITERATIONS
  MAXIMUM CHANGE FOR EACH ITERATION:
   MAX. CHANGE        NODE  MAX. CHANGE        NODE  MAX. CHANGE        NODE  MAX. CHANGE        NODE  MAX. CHANGE        NODE
 ------------------------------------------------------------------------------------------------------------------------------------
    0.0000    ,          1
1
  VOLUMETRIC BUDGET FOR ENTIRE MODEL AT END OF TIME STEP       7 IN STRESS PERIOD       1
  ---------------------------------------------------------------------------------------

     CUMULATIVE VOLUMES      L**3       RATES FOR THIS TIME STEP      L**3/T
     ------------------                 ------------------------

           IN:                                      IN:
           ---                                      ---
             STORAGE =           0.0000               STORAGE =           0.0000
         SWF STORAGE =       2.5548E-10           SWF STORAGE =           0.0000
       CONSTANT HEAD =           0.0000         CONSTANT HEAD =           0.0000
      SWF CONST HEAD =       2.6907E-03        SWF CONST HEAD =           0.2833

            TOTAL IN =       2.6907E-03              TOTAL IN =           0.2833

          OUT:                                     OUT:
          ----                                     ----
             STORAGE =           0.0000               STORAGE =           0.0000
         SWF STORAGE =       2.3894E-03           SWF STORAGE =           0.2626
       CONSTANT HEAD =           0.0000         CONSTANT HEAD =           0.0000
      SWF CONST HEAD =       8.0518E-12        SWF CONST HEAD =           0.0000

           TOTAL OUT =       2.3894E-03             TOTAL OUT =           0.2626

            IN - OUT =       3.0135E-04              IN - OUT =       2.0687E-02

 PERCENT DISCREPANCY =          11.86     PERCENT DISCREPANCY =           7.58






          TIME SUMMARY AT END OF TIME STEP         7 IN STRESS PERIOD         1
                    SECONDS     MINUTES      HOURS       DAYS        YEARS
                    -----------------------------------------------------------
   TIME STEP LENGTH 1.77156E-03 2.95260E-05 4.92100E-07 2.05042E-08 5.61374E-11
 STRESS PERIOD TIME 9.48717E-03 1.58120E-04 2.63533E-06 1.09805E-07 3.00630E-10
         TOTAL TIME 9.48717E-03 1.58120E-04 2.63533E-06 1.09805E-07 3.00630E-10
1
 -------------------------------------------------------------------------------------
 
 SOLVING FOR HEAD 

 Outer-Iteration  Inner-Iteration  Backtracking  Number of        Incoming       Outgoing      Cutoff     Maximum Head Change      Maximum Head Change
     Number           Count           Flag       Backtracks       Residual       Residual      Residual            Value               Location
        1                             0             0          0.210803E-01     0.210803E-01   -1.00000    
        1                2                                                                                        0.00000                      1           GWF-node number
        1                2                                                                                       0.461651E-04                  2           CLN-node number
     1 CALLS TO SPARSE MATRIX SOLVER PACKAGE  IN FLOW TIME STEP       8 STRESS PERIOD       1

 TOTAL OF       1OUTER ITERATIONS
  MAXIMUM CHANGE FOR EACH ITERATION:
   MAX. CHANGE        NODE  MAX. CHANGE        NODE  MAX. CHANGE        NODE  MAX. CHANGE        NODE  MAX. CHANGE        NODE
 ------------------------------------------------------------------------------------------------------------------------------------
    0.0000    ,          1
1
  VOLUMETRIC BUDGET FOR ENTIRE MODEL AT END OF TIME STEP       8 IN STRESS PERIOD       1
  ---------------------------------------------------------------------------------------

     CUMULATIVE VOLUMES      L**3       RATES FOR THIS TIME STEP      L**3/T
     ------------------                 ------------------------

           IN:                                      IN:
           ---                                      ---
             STORAGE =           0.0000               STORAGE =           0.0000
         SWF STORAGE =       2.5548E-10           SWF STORAGE =           0.0000
       CONSTANT HEAD =           0.0000         CONSTANT HEAD =           0.0000
      SWF CONST HEAD =       3.2426E-03        SWF CONST HEAD =           0.2832

            TOTAL IN =       3.2426E-03              TOTAL IN =           0.2832

          OUT:                                     OUT:
          ----                                     ----
             STORAGE =           0.0000               STORAGE =           0.0000
         SWF STORAGE =       2.9104E-03           SWF STORAGE =           0.2674
       CONSTANT HEAD =           0.0000         CONSTANT HEAD =           0.0000
      SWF CONST HEAD =       8.0518E-12        SWF CONST HEAD =           0.0000

           TOTAL OUT =       2.9104E-03             TOTAL OUT =           0.2674

            IN - OUT =       3.3219E-04              IN - OUT =       1.5826E-02

 PERCENT DISCREPANCY =          10.80     PERCENT DISCREPANCY =           5.75






          TIME SUMMARY AT END OF TIME STEP         8 IN STRESS PERIOD         1
                    SECONDS     MINUTES      HOURS       DAYS        YEARS
                    -----------------------------------------------------------
   TIME STEP LENGTH 1.94872E-03 3.24786E-05 5.41310E-07 2.25546E-08 6.17511E-11
 STRESS PERIOD TIME 1.14359E-02 1.90598E-04 3.17664E-06 1.32360E-07 3.62381E-10
         TOTAL TIME 1.14359E-02 1.90598E-04 3.17664E-06 1.32360E-07 3.62381E-10
1
 -------------------------------------------------------------------------------------
 
 SOLVING FOR HEAD 

 Outer-Iteration  Inner-Iteration  Backtracking  Number of        Incoming       Outgoing      Cutoff     Maximum Head Change      Maximum Head Change
     Number           Count           Flag       Backtracks       Residual       Residual      Residual            Value               Location
        1                             0             0          0.275301E-01     0.275301E-01   -1.00000    
        1                2                                                                                        0.00000                      1           GWF-node number
        1                2                                                                                       0.575192E-04                  2           CLN-node number
     1 CALLS TO SPARSE MATRIX SOLVER PACKAGE  IN FLOW TIME STEP       9 STRESS PERIOD       1

 TOTAL OF       1OUTER ITERATIONS
  MAXIMUM CHANGE FOR EACH ITERATION:
   MAX. CHANGE        NODE  MAX. CHANGE        NODE  MAX. CHANGE        NODE  MAX. CHANGE        NODE  MAX. CHANGE        NODE
 ------------------------------------------------------------------------------------------------------------------------------------
    0.0000    ,          1
1
  VOLUMETRIC BUDGET FOR ENTIRE MODEL AT END OF TIME STEP       9 IN STRESS PERIOD       1
  ---------------------------------------------------------------------------------------

     CUMULATIVE VOLUMES      L**3       RATES FOR THIS TIME STEP      L**3/T
     ------------------                 ------------------------

           IN:                                      IN:
           ---                                      ---
             STORAGE =           0.0000               STORAGE =           0.0000
         SWF STORAGE =       2.5548E-10           SWF STORAGE =           0.0000
       CONSTANT HEAD =           0.0000         CONSTANT HEAD =           0.0000
      SWF CONST HEAD =       3.8494E-03        SWF CONST HEAD =           0.2831

            TOTAL IN =       3.8494E-03              TOTAL IN =           0.2831

          OUT:                                     OUT:
          ----                                     ----
             STORAGE =           0.0000               STORAGE =           0.0000
         SWF STORAGE =       3.4821E-03           SWF STORAGE =           0.2667
       CONSTANT HEAD =           0.0000         CONSTANT HEAD =           0.0000
      SWF CONST HEAD =       8.0518E-12        SWF CONST HEAD =           0.0000

           TOTAL OUT =       3.4821E-03             TOTAL OUT =           0.2667

            IN - OUT =       3.6734E-04              IN - OUT =       1.6398E-02

 PERCENT DISCREPANCY =          10.02     PERCENT DISCREPANCY =           5.97






          TIME SUMMARY AT END OF TIME STEP         9 IN STRESS PERIOD         1
                    SECONDS     MINUTES      HOURS       DAYS        YEARS
                    -----------------------------------------------------------
   TIME STEP LENGTH 2.14359E-03 3.57265E-05 5.95441E-07 2.48101E-08 6.79262E-11
 STRESS PERIOD TIME 1.35795E-02 2.26325E-04 3.77208E-06 1.57170E-07 4.30308E-10
         TOTAL TIME 1.35795E-02 2.26325E-04 3.77208E-06 1.57170E-07 4.30308E-10
1
 -------------------------------------------------------------------------------------
 
 SOLVING FOR HEAD 

 Outer-Iteration  Inner-Iteration  Backtracking  Number of        Incoming       Outgoing      Cutoff     Maximum Head Change      Maximum Head Change
     Number           Count           Flag       Backtracks       Residual       Residual      Residual            Value               Location
        1                             0             0          0.217551E-01     0.217551E-01   -1.00000    
        1                2                                                                                        0.00000                      1           GWF-node number
        1                2                                                                                       0.556749E-04                  2           CLN-node number
     1 CALLS TO SPARSE MATRIX SOLVER PACKAGE  IN FLOW TIME STEP      10 STRESS PERIOD       1

 TOTAL OF       1OUTER ITERATIONS
  MAXIMUM CHANGE FOR EACH ITERATION:
   MAX. CHANGE        NODE  MAX. CHANGE        NODE  MAX. CHANGE        NODE  MAX. CHANGE        NODE  MAX. CHANGE        NODE
 ------------------------------------------------------------------------------------------------------------------------------------
    0.0000    ,          1
1
  VOLUMETRIC BUDGET FOR ENTIRE MODEL AT END OF TIME STEP      10 IN STRESS PERIOD       1
  ---------------------------------------------------------------------------------------

     CUMULATIVE VOLUMES      L**3       RATES FOR THIS TIME STEP      L**3/T
     ------------------                 ------------------------

           IN:                                      IN:
           ---                                      ---
             STORAGE =           0.0000               STORAGE =           0.0000
         SWF STORAGE =       2.5548E-10           SWF STORAGE =           0.0000
       CONSTANT HEAD =           0.0000         CONSTANT HEAD =           0.0000
      SWF CONST HEAD =       4.5166E-03        SWF CONST HEAD =           0.2829

            TOTAL IN =       4.5166E-03              TOTAL IN =           0.2829

          OUT:                                     OUT:
          ----                                     ----
             STORAGE =           0.0000               STORAGE =           0.0000
         SWF STORAGE =       4.1177E-03           SWF STORAGE =           0.2695
       CONSTANT HEAD =           0.0000         CONSTANT HEAD =           0.0000
      SWF CONST HEAD =       8.0518E-12        SWF CONST HEAD =           0.0000

           TOTAL OUT =       4.1177E-03             TOTAL OUT =           0.2695

            IN - OUT =       3.9891E-04              IN - OUT =       1.3390E-02

 PERCENT DISCREPANCY =           9.24     PERCENT DISCREPANCY =           4.85






          TIME SUMMARY AT END OF TIME STEP        10 IN STRESS PERIOD         1
                    SECONDS     MINUTES      HOURS       DAYS        YEARS
                    -----------------------------------------------------------
   TIME STEP LENGTH 2.35795E-03 3.92991E-05 6.54986E-07 2.72911E-08 7.47189E-11
 STRESS PERIOD TIME 1.59374E-02 2.65624E-04 4.42706E-06 1.84461E-07 5.05027E-10
         TOTAL TIME 1.59374E-02 2.65624E-04 4.42706E-06 1.84461E-07 5.05027E-10
1
 -------------------------------------------------------------------------------------
 
 SOLVING FOR HEAD 

 Outer-Iteration  Inner-Iteration  Backtracking  Number of        Incoming       Outgoing      Cutoff     Maximum Head Change      Maximum Head Change
     Number           Count           Flag       Backtracks       Residual       Residual      Residual            Value               Location
        1                             0             0          0.260388E-01     0.260388E-01   -1.00000    
        1                2                                                                                        0.00000                      1           GWF-node number
        1                2                                                                                       0.663879E-04                  2           CLN-node number
     1 CALLS TO SPARSE MATRIX SOLVER PACKAGE  IN FLOW TIME STEP      11 STRESS PERIOD       1

 TOTAL OF       1OUTER ITERATIONS
  MAXIMUM CHANGE FOR EACH ITERATION:
   MAX. CHANGE        NODE  MAX. CHANGE        NODE  MAX. CHANGE        NODE  MAX. CHANGE        NODE  MAX. CHANGE        NODE
 ------------------------------------------------------------------------------------------------------------------------------------
    0.0000    ,          1
1
  VOLUMETRIC BUDGET FOR ENTIRE MODEL AT END OF TIME STEP      11 IN STRESS PERIOD       1
  ---------------------------------------------------------------------------------------

     CUMULATIVE VOLUMES      L**3       RATES FOR THIS TIME STEP      L**3/T
     ------------------                 ------------------------

           IN:                                      IN:
           ---                                      ---
             STORAGE =           0.0000               STORAGE =           0.0000
         SWF STORAGE =       2.5548E-10           SWF STORAGE =           0.0000
       CONSTANT HEAD =           0.0000         CONSTANT HEAD =           0.0000
      SWF CONST HEAD =       5.2500E-03        SWF CONST HEAD =           0.2828

            TOTAL IN =       5.2500E-03              TOTAL IN =           0.2828

          OUT:                                     OUT:
          ----                                     ----
             STORAGE =           0.0000               STORAGE =           0.0000
         SWF STORAGE =       4.8164E-03           SWF STORAGE =           0.2694
       CONSTANT HEAD =           0.0000         CONSTANT HEAD =           0.0000
      SWF CONST HEAD =       8.0518E-12        SWF CONST HEAD =           0.0000

           TOTAL OUT =       4.8164E-03             TOTAL OUT =           0.2694

            IN - OUT =       4.3360E-04              IN - OUT =       1.3374E-02

 PERCENT DISCREPANCY =           8.61     PERCENT DISCREPANCY =           4.84






          TIME SUMMARY AT END OF TIME STEP        11 IN STRESS PERIOD         1
                    SECONDS     MINUTES      HOURS       DAYS        YEARS
                    -----------------------------------------------------------
   TIME STEP LENGTH 2.59374E-03 4.32291E-05 7.20484E-07 3.00202E-08 8.21908E-11
 STRESS PERIOD TIME 1.85312E-02 3.08853E-04 5.14755E-06 2.14481E-07 5.87217E-10
         TOTAL TIME 1.85312E-02 3.08853E-04 5.14755E-06 2.14481E-07 5.87217E-10
1
 -------------------------------------------------------------------------------------
 
 SOLVING FOR HEAD 

 Outer-Iteration  Inner-Iteration  Backtracking  Number of        Incoming       Outgoing      Cutoff     Maximum Head Change      Maximum Head Change
     Number           Count           Flag       Backtracks       Residual       Residual      Residual            Value               Location
        1                             0             0          0.220893E-01     0.220893E-01   -1.00000    
        1                2                                                                                        0.00000                      1           GWF-node number
        1                2                                                                                       0.665825E-04                  2           CLN-node number
     1 CALLS TO SPARSE MATRIX SOLVER PACKAGE  IN FLOW TIME STEP      12 STRESS PERIOD       1

 TOTAL OF       1OUTER ITERATIONS
  MAXIMUM CHANGE FOR EACH ITERATION:
   MAX. CHANGE        NODE  MAX. CHANGE        NODE  MAX. CHANGE        NODE  MAX. CHANGE        NODE  MAX. CHANGE        NODE
 ------------------------------------------------------------------------------------------------------------------------------------
    0.0000    ,          1
1
  VOLUMETRIC BUDGET FOR ENTIRE MODEL AT END OF TIME STEP      12 IN STRESS PERIOD       1
  ---------------------------------------------------------------------------------------

     CUMULATIVE VOLUMES      L**3       RATES FOR THIS TIME STEP      L**3/T
     ------------------                 ------------------------

           IN:                                      IN:
           ---                                      ---
             STORAGE =           0.0000               STORAGE =           0.0000
         SWF STORAGE =       2.5548E-10           SWF STORAGE =           0.0000
       CONSTANT HEAD =           0.0000         CONSTANT HEAD =           0.0000
      SWF CONST HEAD =       6.0563E-03        SWF CONST HEAD =           0.2826

            TOTAL IN =       6.0563E-03              TOTAL IN =           0.2826

          OUT:                                     OUT:
          ----                                     ----
             STORAGE =           0.0000               STORAGE =           0.0000
         SWF STORAGE =       5.5902E-03           SWF STORAGE =           0.2712
       CONSTANT HEAD =           0.0000         CONSTANT HEAD =           0.0000
      SWF CONST HEAD =       8.0518E-12        SWF CONST HEAD =           0.0000

           TOTAL OUT =       5.5902E-03             TOTAL OUT =           0.2712

            IN - OUT =       4.6608E-04              IN - OUT =       1.1382E-02

 PERCENT DISCREPANCY =           8.00     PERCENT DISCREPANCY =           4.11






          TIME SUMMARY AT END OF TIME STEP        12 IN STRESS PERIOD         1
                    SECONDS     MINUTES      HOURS       DAYS        YEARS
                    -----------------------------------------------------------
   TIME STEP LENGTH 2.85312E-03 4.75520E-05 7.92533E-07 3.30222E-08 9.04098E-11
 STRESS PERIOD TIME 2.13843E-02 3.56405E-04 5.94008E-06 2.47503E-07 6.77627E-10
         TOTAL TIME 2.13843E-02 3.56405E-04 5.94008E-06 2.47503E-07 6.77627E-10
1
 -------------------------------------------------------------------------------------
 
 SOLVING FOR HEAD 

 Outer-Iteration  Inner-Iteration  Backtracking  Number of        Incoming       Outgoing      Cutoff     Maximum Head Change      Maximum Head Change
     Number           Count           Flag       Backtracks       Residual       Residual      Residual            Value               Location
        1                             0             0          0.250346E-01     0.250346E-01   -1.00000    
        1                2                                                                                        0.00000                      1           GWF-node number
        1                2                                                                                       0.772335E-04                  2           CLN-node number
     1 CALLS TO SPARSE MATRIX SOLVER PACKAGE  IN FLOW TIME STEP      13 STRESS PERIOD       1

 TOTAL OF       1OUTER ITERATIONS
  MAXIMUM CHANGE FOR EACH ITERATION:
   MAX. CHANGE        NODE  MAX. CHANGE        NODE  MAX. CHANGE        NODE  MAX. CHANGE        NODE  MAX. CHANGE        NODE
 ------------------------------------------------------------------------------------------------------------------------------------
    0.0000    ,          1
1
  VOLUMETRIC BUDGET FOR ENTIRE MODEL AT END OF TIME STEP      13 IN STRESS PERIOD       1
  ---------------------------------------------------------------------------------------

     CUMULATIVE VOLUMES      L**3       RATES FOR THIS TIME STEP      L**3/T
     ------------------                 ------------------------

           IN:                                      IN:
           ---                                      ---
             STORAGE =           0.0000               STORAGE =           0.0000
         SWF STORAGE =       2.5548E-10           SWF STORAGE =           0.0000
       CONSTANT HEAD =           0.0000         CONSTANT HEAD =           0.0000
      SWF CONST HEAD =       6.9425E-03        SWF CONST HEAD =           0.2824

            TOTAL IN =       6.9425E-03              TOTAL IN =           0.2824

          OUT:                                     OUT:
          ----                                     ----
             STORAGE =           0.0000               STORAGE =           0.0000
         SWF STORAGE =       6.4415E-03           SWF STORAGE =           0.2713
       CONSTANT HEAD =           0.0000         CONSTANT HEAD =           0.0000
      SWF CONST HEAD =       8.0518E-12        SWF CONST HEAD =           0.0000

           TOTAL OUT =       6.4415E-03             TOTAL OUT =           0.2713

            IN - OUT =       5.0101E-04              IN - OUT =       1.1131E-02

 PERCENT DISCREPANCY =           7.49     PERCENT DISCREPANCY =           4.02






          TIME SUMMARY AT END OF TIME STEP        13 IN STRESS PERIOD         1
                    SECONDS     MINUTES      HOURS       DAYS        YEARS
                    -----------------------------------------------------------
   TIME STEP LENGTH 3.13843E-03 5.23072E-05 8.71786E-07 3.63244E-08 9.94508E-11
 STRESS PERIOD TIME 2.45227E-02 4.08712E-04 6.81187E-06 2.83828E-07 7.77078E-10
         TOTAL TIME 2.45227E-02 4.08712E-04 6.81187E-06 2.83828E-07 7.77078E-10
1
 -------------------------------------------------------------------------------------
 
 SOLVING FOR HEAD 

 Outer-Iteration  Inner-Iteration  Backtracking  Number of        Incoming       Outgoing      Cutoff     Maximum Head Change      Maximum Head Change
     Number           Count           Flag       Backtracks       Residual       Residual      Residual            Value               Location
        1                             0             0          0.222366E-01     0.222366E-01   -1.00000    
        1                2                                                                                        0.00000                      1           GWF-node number
        1                2                                                                                       0.792544E-04                  2           CLN-node number
     1 CALLS TO SPARSE MATRIX SOLVER PACKAGE  IN FLOW TIME STEP      14 STRESS PERIOD       1

 TOTAL OF       1OUTER ITERATIONS
  MAXIMUM CHANGE FOR EACH ITERATION:
   MAX. CHANGE        NODE  MAX. CHANGE        NODE  MAX. CHANGE        NODE  MAX. CHANGE        NODE  MAX. CHANGE        NODE
 ------------------------------------------------------------------------------------------------------------------------------------
    0.0000    ,          1
1
  VOLUMETRIC BUDGET FOR ENTIRE MODEL AT END OF TIME STEP      14 IN STRESS PERIOD       1
  ---------------------------------------------------------------------------------------

     CUMULATIVE VOLUMES      L**3       RATES FOR THIS TIME STEP      L**3/T
     ------------------                 ------------------------

           IN:                                      IN:
           ---                                      ---
             STORAGE =           0.0000               STORAGE =           0.0000
         SWF STORAGE =       2.5548E-10           SWF STORAGE =           0.0000
       CONSTANT HEAD =           0.0000         CONSTANT HEAD =           0.0000
      SWF CONST HEAD =       7.9167E-03        SWF CONST HEAD =           0.2822

            TOTAL IN =       7.9167E-03              TOTAL IN =           0.2822

          OUT:                                     OUT:
          ----                                     ----
             STORAGE =           0.0000               STORAGE =           0.0000
         SWF STORAGE =       7.3821E-03           SWF STORAGE =           0.2725
       CONSTANT HEAD =           0.0000         CONSTANT HEAD =           0.0000
      SWF CONST HEAD =       8.0518E-12        SWF CONST HEAD =           0.0000

           TOTAL OUT =       7.3821E-03             TOTAL OUT =           0.2725

            IN - OUT =       5.3463E-04              IN - OUT =       9.7385E-03

 PERCENT DISCREPANCY =           6.99     PERCENT DISCREPANCY =           3.51






          TIME SUMMARY AT END OF TIME STEP        14 IN STRESS PERIOD         1
                    SECONDS     MINUTES      HOURS       DAYS        YEARS
                    -----------------------------------------------------------
   TIME STEP LENGTH 3.45227E-03 5.75379E-05 9.58965E-07 3.99569E-08 1.09396E-10
 STRESS PERIOD TIME 2.79750E-02 4.66250E-04 7.77083E-06 3.23785E-07 8.86474E-10
         TOTAL TIME 2.79750E-02 4.66250E-04 7.77083E-06 3.23785E-07 8.86474E-10
1
 -------------------------------------------------------------------------------------
 
 SOLVING FOR HEAD 

 Outer-Iteration  Inner-Iteration  Backtracking  Number of        Incoming       Outgoing      Cutoff     Maximum Head Change      Maximum Head Change
     Number           Count           Flag       Backtracks       Residual       Residual      Residual            Value               Location
        1                             0             0          0.243151E-01     0.243151E-01   -1.00000    
        1                2                                                                                        0.00000                      1           GWF-node number
        1                2                                                                                       0.902725E-04                  2           CLN-node number
     1 CALLS TO SPARSE MATRIX SOLVER PACKAGE  IN FLOW TIME STEP      15 STRESS PERIOD       1

 TOTAL OF       1OUTER ITERATIONS
  MAXIMUM CHANGE FOR EACH ITERATION:
   MAX. CHANGE        NODE  MAX. CHANGE        NODE  MAX. CHANGE        NODE  MAX. CHANGE        NODE  MAX. CHANGE        NODE
 ------------------------------------------------------------------------------------------------------------------------------------
    0.0000    ,          1
1
  VOLUMETRIC BUDGET FOR ENTIRE MODEL AT END OF TIME STEP      15 IN STRESS PERIOD       1
  ---------------------------------------------------------------------------------------

     CUMULATIVE VOLUMES      L**3       RATES FOR THIS TIME STEP      L**3/T
     ------------------                 ------------------------

           IN:                                      IN:
           ---                                      ---
             STORAGE =           0.0000               STORAGE =           0.0000
         SWF STORAGE =       2.5548E-10           SWF STORAGE =           0.0000
       CONSTANT HEAD =           0.0000         CONSTANT HEAD =           0.0000
      SWF CONST HEAD =       8.9874E-03        SWF CONST HEAD =           0.2820

            TOTAL IN =       8.9874E-03              TOTAL IN =           0.2820

          OUT:                                     OUT:
          ----                                     ----
             STORAGE =           0.0000               STORAGE =           0.0000
         SWF STORAGE =       8.4171E-03           SWF STORAGE =           0.2725
       CONSTANT HEAD =           0.0000         CONSTANT HEAD =           0.0000
      SWF CONST HEAD =       8.0518E-12        SWF CONST HEAD =           0.0000

           TOTAL OUT =       8.4171E-03             TOTAL OUT =           0.2725

            IN - OUT =       5.7037E-04              IN - OUT =       9.4103E-03

 PERCENT DISCREPANCY =           6.55     PERCENT DISCREPANCY =           3.39






          TIME SUMMARY AT END OF TIME STEP        15 IN STRESS PERIOD         1
                    SECONDS     MINUTES      HOURS       DAYS        YEARS
                    -----------------------------------------------------------
   TIME STEP LENGTH 3.79750E-03 6.32917E-05 1.05486E-06 4.39525E-08 1.20336E-10
 STRESS PERIOD TIME 3.17725E-02 5.29542E-04 8.82569E-06 3.67737E-07 1.00681E-09
         TOTAL TIME 3.17725E-02 5.29542E-04 8.82569E-06 3.67737E-07 1.00681E-09
1
 -------------------------------------------------------------------------------------
 
 SOLVING FOR HEAD 

 Outer-Iteration  Inner-Iteration  Backtracking  Number of        Incoming       Outgoing      Cutoff     Maximum Head Change      Maximum Head Change
     Number           Count           Flag       Backtracks       Residual       Residual      Residual            Value               Location
        1                             0             0          0.222770E-01     0.222770E-01   -1.00000    
        1                2                                                                                        0.00000                      1           GWF-node number
        1                2                                                                                       0.940643E-04                  2           CLN-node number
     1 CALLS TO SPARSE MATRIX SOLVER PACKAGE  IN FLOW TIME STEP      16 STRESS PERIOD       1

 TOTAL OF       1OUTER ITERATIONS
  MAXIMUM CHANGE FOR EACH ITERATION:
   MAX. CHANGE        NODE  MAX. CHANGE        NODE  MAX. CHANGE        NODE  MAX. CHANGE        NODE  MAX. CHANGE        NODE
 ------------------------------------------------------------------------------------------------------------------------------------
    0.0000    ,          1
1
  VOLUMETRIC BUDGET FOR ENTIRE MODEL AT END OF TIME STEP      16 IN STRESS PERIOD       1
  ---------------------------------------------------------------------------------------

     CUMULATIVE VOLUMES      L**3       RATES FOR THIS TIME STEP      L**3/T
     ------------------                 ------------------------

           IN:                                      IN:
           ---                                      ---
             STORAGE =           0.0000               STORAGE =           0.0000
         SWF STORAGE =       2.5548E-10           SWF STORAGE =           0.0000
       CONSTANT HEAD =           0.0000         CONSTANT HEAD =           0.0000
      SWF CONST HEAD =       1.0164E-02        SWF CONST HEAD =           0.2817

            TOTAL IN =       1.0164E-02              TOTAL IN =           0.2817

          OUT:                                     OUT:
          ----                                     ----
             STORAGE =           0.0000               STORAGE =           0.0000
         SWF STORAGE =       9.5588E-03           SWF STORAGE =           0.2733
       CONSTANT HEAD =           0.0000         CONSTANT HEAD =           0.0000
      SWF CONST HEAD =       8.0518E-12        SWF CONST HEAD =           0.0000

           TOTAL OUT =       9.5588E-03             TOTAL OUT =           0.2733

            IN - OUT =       6.0547E-04              IN - OUT =       8.4044E-03

 PERCENT DISCREPANCY =           6.14     PERCENT DISCREPANCY =           3.03






          TIME SUMMARY AT END OF TIME STEP        16 IN STRESS PERIOD         1
                    SECONDS     MINUTES      HOURS       DAYS        YEARS
                    -----------------------------------------------------------
   TIME STEP LENGTH 4.17725E-03 6.96208E-05 1.16035E-06 4.83478E-08 1.32369E-10
 STRESS PERIOD TIME 3.59497E-02 5.99162E-04 9.98604E-06 4.16085E-07 1.13918E-09
         TOTAL TIME 3.59497E-02 5.99162E-04 9.98604E-06 4.16085E-07 1.13918E-09
1
 -------------------------------------------------------------------------------------
 
 SOLVING FOR HEAD 

 Outer-Iteration  Inner-Iteration  Backtracking  Number of        Incoming       Outgoing      Cutoff     Maximum Head Change      Maximum Head Change
     Number           Count           Flag       Backtracks       Residual       Residual      Residual            Value               Location
        1                             0             0          0.237720E-01     0.237720E-01   -1.00000    
        1                2                                                                                        0.00000                      1           GWF-node number
        1                2                                                                                       0.105807E-03                  2           CLN-node number
     1 CALLS TO SPARSE MATRIX SOLVER PACKAGE  IN FLOW TIME STEP      17 STRESS PERIOD       1

 TOTAL OF       1OUTER ITERATIONS
  MAXIMUM CHANGE FOR EACH ITERATION:
   MAX. CHANGE        NODE  MAX. CHANGE        NODE  MAX. CHANGE        NODE  MAX. CHANGE        NODE  MAX. CHANGE        NODE
 ------------------------------------------------------------------------------------------------------------------------------------
    0.0000    ,          1
1
  VOLUMETRIC BUDGET FOR ENTIRE MODEL AT END OF TIME STEP      17 IN STRESS PERIOD       1
  ---------------------------------------------------------------------------------------

     CUMULATIVE VOLUMES      L**3       RATES FOR THIS TIME STEP      L**3/T
     ------------------                 ------------------------

           IN:                                      IN:
           ---                                      ---
             STORAGE =           0.0000               STORAGE =           0.0000
         SWF STORAGE =       2.5548E-10           SWF STORAGE =           0.0000
       CONSTANT HEAD =           0.0000         CONSTANT HEAD =           0.0000
      SWF CONST HEAD =       1.1457E-02        SWF CONST HEAD =           0.2814

            TOTAL IN =       1.1457E-02              TOTAL IN =           0.2814

          OUT:                                     OUT:
          ----                                     ----
             STORAGE =           0.0000               STORAGE =           0.0000
         SWF STORAGE =       1.0815E-02           SWF STORAGE =           0.2734
       CONSTANT HEAD =           0.0000         CONSTANT HEAD =           0.0000
      SWF CONST HEAD =       8.0518E-12        SWF CONST HEAD =           0.0000

           TOTAL OUT =       1.0815E-02             TOTAL OUT =           0.2734

            IN - OUT =       6.4257E-04              IN - OUT =       8.0741E-03

 PERCENT DISCREPANCY =           5.77     PERCENT DISCREPANCY =           2.91






          TIME SUMMARY AT END OF TIME STEP        17 IN STRESS PERIOD         1
                    SECONDS     MINUTES      HOURS       DAYS        YEARS
                    -----------------------------------------------------------
   TIME STEP LENGTH 4.59497E-03 7.65829E-05 1.27638E-06 5.31826E-08 1.45606E-10
 STRESS PERIOD TIME 4.05447E-02 6.75745E-04 1.12624E-05 4.69268E-07 1.28478E-09
         TOTAL TIME 4.05447E-02 6.75745E-04 1.12624E-05 4.69268E-07 1.28478E-09
1
 -------------------------------------------------------------------------------------
 
 SOLVING FOR HEAD 

 Outer-Iteration  Inner-Iteration  Backtracking  Number of        Incoming       Outgoing      Cutoff     Maximum Head Change      Maximum Head Change
     Number           Count           Flag       Backtracks       Residual       Residual      Residual            Value               Location
        1                             0             0          0.222533E-01     0.222533E-01   -1.00000    
        1                2                                                                                        0.00000                      1           GWF-node number
        1                2                                                                                       0.111418E-03                  2           CLN-node number
     1 CALLS TO SPARSE MATRIX SOLVER PACKAGE  IN FLOW TIME STEP      18 STRESS PERIOD       1

 TOTAL OF       1OUTER ITERATIONS
  MAXIMUM CHANGE FOR EACH ITERATION:
   MAX. CHANGE        NODE  MAX. CHANGE        NODE  MAX. CHANGE        NODE  MAX. CHANGE        NODE  MAX. CHANGE        NODE
 ------------------------------------------------------------------------------------------------------------------------------------
    0.0000    ,          1
1
  VOLUMETRIC BUDGET FOR ENTIRE MODEL AT END OF TIME STEP      18 IN STRESS PERIOD       1
  ---------------------------------------------------------------------------------------

     CUMULATIVE VOLUMES      L**3       RATES FOR THIS TIME STEP      L**3/T
     ------------------                 ------------------------

           IN:                                      IN:
           ---                                      ---
             STORAGE =           0.0000               STORAGE =           0.0000
         SWF STORAGE =       2.5548E-10           SWF STORAGE =           0.0000
       CONSTANT HEAD =           0.0000         CONSTANT HEAD =           0.0000
      SWF CONST HEAD =       1.2879E-02        SWF CONST HEAD =           0.2812

            TOTAL IN =       1.2879E-02              TOTAL IN =           0.2812

          OUT:                                     OUT:
          ----                                     ----
             STORAGE =           0.0000               STORAGE =           0.0000
         SWF STORAGE =       1.2199E-02           SWF STORAGE =           0.2738
       CONSTANT HEAD =           0.0000         CONSTANT HEAD =           0.0000
      SWF CONST HEAD =       8.0518E-12        SWF CONST HEAD =           0.0000

           TOTAL OUT =       1.2199E-02             TOTAL OUT =           0.2738

            IN - OUT =       6.7963E-04              IN - OUT =       7.3320E-03

 PERCENT DISCREPANCY =           5.42     PERCENT DISCREPANCY =           2.64






          TIME SUMMARY AT END OF TIME STEP        18 IN STRESS PERIOD         1
                    SECONDS     MINUTES      HOURS       DAYS        YEARS
                    -----------------------------------------------------------
   TIME STEP LENGTH 5.05447E-03 8.42412E-05 1.40402E-06 5.85008E-08 1.60167E-10
 STRESS PERIOD TIME 4.55992E-02 7.59986E-04 1.26664E-05 5.27768E-07 1.44495E-09
         TOTAL TIME 4.55992E-02 7.59986E-04 1.26664E-05 5.27768E-07 1.44495E-09
1
 -------------------------------------------------------------------------------------
 
 SOLVING FOR HEAD 

 Outer-Iteration  Inner-Iteration  Backtracking  Number of        Incoming       Outgoing      Cutoff     Maximum Head Change      Maximum Head Change
     Number           Count           Flag       Backtracks       Residual       Residual      Residual            Value               Location
        1                             0             0          0.233425E-01     0.233425E-01   -1.00000    
        1                2                                                                                        0.00000                      1           GWF-node number
        1                2                                                                                       0.124214E-03                  2           CLN-node number
     1 CALLS TO SPARSE MATRIX SOLVER PACKAGE  IN FLOW TIME STEP      19 STRESS PERIOD       1

 TOTAL OF       1OUTER ITERATIONS
  MAXIMUM CHANGE FOR EACH ITERATION:
   MAX. CHANGE        NODE  MAX. CHANGE        NODE  MAX. CHANGE        NODE  MAX. CHANGE        NODE  MAX. CHANGE        NODE
 ------------------------------------------------------------------------------------------------------------------------------------
    0.0000    ,          1
1
  VOLUMETRIC BUDGET FOR ENTIRE MODEL AT END OF TIME STEP      19 IN STRESS PERIOD       1
  ---------------------------------------------------------------------------------------

     CUMULATIVE VOLUMES      L**3       RATES FOR THIS TIME STEP      L**3/T
     ------------------                 ------------------------

           IN:                                      IN:
           ---                                      ---
             STORAGE =           0.0000               STORAGE =           0.0000
         SWF STORAGE =       2.5548E-10           SWF STORAGE =           0.0000
       CONSTANT HEAD =           0.0000         CONSTANT HEAD =           0.0000
      SWF CONST HEAD =       1.4440E-02        SWF CONST HEAD =           0.2808

            TOTAL IN =       1.4440E-02              TOTAL IN =           0.2808

          OUT:                                     OUT:
          ----                                     ----
             STORAGE =           0.0000               STORAGE =           0.0000
         SWF STORAGE =       1.3721E-02           SWF STORAGE =           0.2738
       CONSTANT HEAD =           0.0000         CONSTANT HEAD =           0.0000
      SWF CONST HEAD =       8.0518E-12        SWF CONST HEAD =           0.0000

           TOTAL OUT =       1.3721E-02             TOTAL OUT =           0.2738

            IN - OUT =       7.1876E-04              IN - OUT =       7.0372E-03

 PERCENT DISCREPANCY =           5.10     PERCENT DISCREPANCY =           2.54






          TIME SUMMARY AT END OF TIME STEP        19 IN STRESS PERIOD         1
                    SECONDS     MINUTES      HOURS       DAYS        YEARS
                    -----------------------------------------------------------
   TIME STEP LENGTH 5.55992E-03 9.26653E-05 1.54442E-06 6.43509E-08 1.76183E-10
 STRESS PERIOD TIME 5.11591E-02 8.52652E-04 1.42109E-05 5.92119E-07 1.62113E-09
         TOTAL TIME 5.11591E-02 8.52652E-04 1.42109E-05 5.92119E-07 1.62113E-09
1
 -------------------------------------------------------------------------------------
 
 SOLVING FOR HEAD 

 Outer-Iteration  Inner-Iteration  Backtracking  Number of        Incoming       Outgoing      Cutoff     Maximum Head Change      Maximum Head Change
     Number           Count           Flag       Backtracks       Residual       Residual      Residual            Value               Location
        1                             0             0          0.221886E-01     0.221886E-01   -1.00000    
        1                2                                                                                        0.00000                      1           GWF-node number
        1                2                                                                                       0.131771E-03                  2           CLN-node number
     1 CALLS TO SPARSE MATRIX SOLVER PACKAGE  IN FLOW TIME STEP      20 STRESS PERIOD       1

 TOTAL OF       1OUTER ITERATIONS
  MAXIMUM CHANGE FOR EACH ITERATION:
   MAX. CHANGE        NODE  MAX. CHANGE        NODE  MAX. CHANGE        NODE  MAX. CHANGE        NODE  MAX. CHANGE        NODE
 ------------------------------------------------------------------------------------------------------------------------------------
    0.0000    ,          1
1
  VOLUMETRIC BUDGET FOR ENTIRE MODEL AT END OF TIME STEP      20 IN STRESS PERIOD       1
  ---------------------------------------------------------------------------------------

     CUMULATIVE VOLUMES      L**3       RATES FOR THIS TIME STEP      L**3/T
     ------------------                 ------------------------

           IN:                                      IN:
           ---                                      ---
             STORAGE =           0.0000               STORAGE =           0.0000
         SWF STORAGE =       2.5548E-10           SWF STORAGE =           0.0000
       CONSTANT HEAD =           0.0000         CONSTANT HEAD =           0.0000
      SWF CONST HEAD =       1.6155E-02        SWF CONST HEAD =           0.2805

            TOTAL IN =       1.6155E-02              TOTAL IN =           0.2805

          OUT:                                     OUT:
          ----                                     ----
             STORAGE =           0.0000               STORAGE =           0.0000
         SWF STORAGE =       1.5397E-02           SWF STORAGE =           0.2740
       CONSTANT HEAD =           0.0000         CONSTANT HEAD =           0.0000
      SWF CONST HEAD =       8.0518E-12        SWF CONST HEAD =           0.0000

           TOTAL OUT =       1.5397E-02             TOTAL OUT =           0.2740

            IN - OUT =       7.5848E-04              IN - OUT =       6.4943E-03

 PERCENT DISCREPANCY =           4.81     PERCENT DISCREPANCY =           2.34






          TIME SUMMARY AT END OF TIME STEP        20 IN STRESS PERIOD         1
                    SECONDS     MINUTES      HOURS       DAYS        YEARS
                    -----------------------------------------------------------
   TIME STEP LENGTH 6.11591E-03 1.01932E-04 1.69886E-06 7.07860E-08 1.93802E-10
 STRESS PERIOD TIME 5.72750E-02 9.54584E-04 1.59097E-05 6.62905E-07 1.81494E-09
         TOTAL TIME 5.72750E-02 9.54584E-04 1.59097E-05 6.62905E-07 1.81494E-09
1
 -------------------------------------------------------------------------------------
 
 SOLVING FOR HEAD 

 Outer-Iteration  Inner-Iteration  Backtracking  Number of        Incoming       Outgoing      Cutoff     Maximum Head Change      Maximum Head Change
     Number           Count           Flag       Backtracks       Residual       Residual      Residual            Value               Location
        1                             0             0          0.229873E-01     0.229873E-01   -1.00000    
        1                2                                                                                        0.00000                      1           GWF-node number
        1                2                                                                                       0.145941E-03                  2           CLN-node number
     1 CALLS TO SPARSE MATRIX SOLVER PACKAGE  IN FLOW TIME STEP      21 STRESS PERIOD       1

 TOTAL OF       1OUTER ITERATIONS
  MAXIMUM CHANGE FOR EACH ITERATION:
   MAX. CHANGE        NODE  MAX. CHANGE        NODE  MAX. CHANGE        NODE  MAX. CHANGE        NODE  MAX. CHANGE        NODE
 ------------------------------------------------------------------------------------------------------------------------------------
    0.0000    ,          1
1
  VOLUMETRIC BUDGET FOR ENTIRE MODEL AT END OF TIME STEP      21 IN STRESS PERIOD       1
  ---------------------------------------------------------------------------------------

     CUMULATIVE VOLUMES      L**3       RATES FOR THIS TIME STEP      L**3/T
     ------------------                 ------------------------

           IN:                                      IN:
           ---                                      ---
             STORAGE =           0.0000               STORAGE =           0.0000
         SWF STORAGE =       2.5548E-10           SWF STORAGE =           0.0000
       CONSTANT HEAD =           0.0000         CONSTANT HEAD =           0.0000
      SWF CONST HEAD =       1.8040E-02        SWF CONST HEAD =           0.2801

            TOTAL IN =       1.8040E-02              TOTAL IN =           0.2801

          OUT:                                     OUT:
          ----                                     ----
             STORAGE =           0.0000               STORAGE =           0.0000
         SWF STORAGE =       1.7239E-02           SWF STORAGE =           0.2739
       CONSTANT HEAD =           0.0000         CONSTANT HEAD =           0.0000
      SWF CONST HEAD =       8.0518E-12        SWF CONST HEAD =           0.0000

           TOTAL OUT =       1.7239E-02             TOTAL OUT =           0.2739

            IN - OUT =       8.0055E-04              IN - OUT =       6.2531E-03

 PERCENT DISCREPANCY =           4.54     PERCENT DISCREPANCY =           2.26






          TIME SUMMARY AT END OF TIME STEP        21 IN STRESS PERIOD         1
                    SECONDS     MINUTES      HOURS       DAYS        YEARS
                    -----------------------------------------------------------
   TIME STEP LENGTH 6.72750E-03 1.12125E-04 1.86875E-06 7.78646E-08 2.13182E-10
 STRESS PERIOD TIME 6.40025E-02 1.06671E-03 1.77785E-05 7.40770E-07 2.02812E-09
         TOTAL TIME 6.40025E-02 1.06671E-03 1.77785E-05 7.40770E-07 2.02812E-09
1
 -------------------------------------------------------------------------------------
 
 SOLVING FOR HEAD 

[...]
          ----                                     ----
             STORAGE =           0.0000               STORAGE =           0.0000
         SWF STORAGE =          45.9240           SWF STORAGE =       1.6724E-05
       CONSTANT HEAD =           0.0000         CONSTANT HEAD =           0.0000
      SWF CONST HEAD =         345.8707        SWF CONST HEAD =           0.1160

           TOTAL OUT =         391.7947             TOTAL OUT =           0.1160

            IN - OUT =      -1.6870E-02              IN - OUT =      -1.0796E-07

 PERCENT DISCREPANCY =          -0.00     PERCENT DISCREPANCY =          -0.00






          TIME SUMMARY AT END OF TIME STEP       183 IN STRESS PERIOD         1
                    SECONDS     MINUTES      HOURS       DAYS        YEARS
                    -----------------------------------------------------------
   TIME STEP LENGTH  60.000      1.0000     1.66667E-02 6.94444E-04 1.90129E-06
 STRESS PERIOD TIME  3369.0      56.150     0.93584     3.89933E-02 1.06758E-04
         TOTAL TIME  3369.0      56.150     0.93584     3.89933E-02 1.06758E-04
1
 -------------------------------------------------------------------------------------
 
 SOLVING FOR HEAD 

 Outer-Iteration  Inner-Iteration  Backtracking  Number of        Incoming       Outgoing      Cutoff     Maximum Head Change      Maximum Head Change
     Number           Count           Flag       Backtracks       Residual       Residual      Residual            Value               Location
        1                             0             0          0.241307E-10     0.241307E-10   -1.00000    
        1                2                                                                                        0.00000                      1           GWF-node number
        1                2                                                                                      -0.183401E-05                 57           CLN-node number
     1 CALLS TO SPARSE MATRIX SOLVER PACKAGE  IN FLOW TIME STEP     184 STRESS PERIOD       1

 TOTAL OF       1OUTER ITERATIONS
  MAXIMUM CHANGE FOR EACH ITERATION:
   MAX. CHANGE        NODE  MAX. CHANGE        NODE  MAX. CHANGE        NODE  MAX. CHANGE        NODE  MAX. CHANGE        NODE
 ------------------------------------------------------------------------------------------------------------------------------------
    0.0000    ,          1
1
  VOLUMETRIC BUDGET FOR ENTIRE MODEL AT END OF TIME STEP     184 IN STRESS PERIOD       1
  ---------------------------------------------------------------------------------------

     CUMULATIVE VOLUMES      L**3       RATES FOR THIS TIME STEP      L**3/T
     ------------------                 ------------------------

           IN:                                      IN:
           ---                                      ---
             STORAGE =           0.0000               STORAGE =           0.0000
         SWF STORAGE =           0.3977           SWF STORAGE =       1.1918E-05
       CONSTANT HEAD =           0.0000         CONSTANT HEAD =           0.0000
      SWF CONST HEAD =         398.3400        SWF CONST HEAD =           0.1160

            TOTAL IN =         398.7377              TOTAL IN =           0.1160

          OUT:                                     OUT:
          ----                                     ----
             STORAGE =           0.0000               STORAGE =           0.0000
         SWF STORAGE =          45.9249           SWF STORAGE =       1.5084E-05
       CONSTANT HEAD =           0.0000         CONSTANT HEAD =           0.0000
      SWF CONST HEAD =         352.8297        SWF CONST HEAD =           0.1160

           TOTAL OUT =         398.7546             TOTAL OUT =           0.1160

            IN - OUT =      -1.6863E-02              IN - OUT =       1.2052E-07

 PERCENT DISCREPANCY =          -0.00     PERCENT DISCREPANCY =           0.00






          TIME SUMMARY AT END OF TIME STEP       184 IN STRESS PERIOD         1
                    SECONDS     MINUTES      HOURS       DAYS        YEARS
                    -----------------------------------------------------------
   TIME STEP LENGTH  60.000      1.0000     1.66667E-02 6.94444E-04 1.90129E-06
 STRESS PERIOD TIME  3429.0      57.150     0.95251     3.96878E-02 1.08659E-04
         TOTAL TIME  3429.0      57.150     0.95251     3.96878E-02 1.08659E-04
1
 -------------------------------------------------------------------------------------
 
 SOLVING FOR HEAD 

 Outer-Iteration  Inner-Iteration  Backtracking  Number of        Incoming       Outgoing      Cutoff     Maximum Head Change      Maximum Head Change
     Number           Count           Flag       Backtracks       Residual       Residual      Residual            Value               Location
        1                             0             0          0.234991E-10     0.234991E-10   -1.00000    
        1                2                                                                                        0.00000                      1           GWF-node number
        1                2                                                                                      -0.181992E-05                 64           CLN-node number
     1 CALLS TO SPARSE MATRIX SOLVER PACKAGE  IN FLOW TIME STEP     185 STRESS PERIOD       1

 TOTAL OF       1OUTER ITERATIONS
  MAXIMUM CHANGE FOR EACH ITERATION:
   MAX. CHANGE        NODE  MAX. CHANGE        NODE  MAX. CHANGE        NODE  MAX. CHANGE        NODE  MAX. CHANGE        NODE
 ------------------------------------------------------------------------------------------------------------------------------------
    0.0000    ,          1
1
  VOLUMETRIC BUDGET FOR ENTIRE MODEL AT END OF TIME STEP     185 IN STRESS PERIOD       1
  ---------------------------------------------------------------------------------------

     CUMULATIVE VOLUMES      L**3       RATES FOR THIS TIME STEP      L**3/T
     ------------------                 ------------------------

           IN:                                      IN:
           ---                                      ---
             STORAGE =           0.0000               STORAGE =           0.0000
         SWF STORAGE =           0.3985           SWF STORAGE =       1.2766E-05
       CONSTANT HEAD =           0.0000         CONSTANT HEAD =           0.0000
      SWF CONST HEAD =         405.2992        SWF CONST HEAD =           0.1160

            TOTAL IN =         405.6977              TOTAL IN =           0.1160

          OUT:                                     OUT:
          ----                                     ----
             STORAGE =           0.0000               STORAGE =           0.0000
         SWF STORAGE =          45.9257           SWF STORAGE =       1.3214E-05
       CONSTANT HEAD =           0.0000         CONSTANT HEAD =           0.0000
      SWF CONST HEAD =         359.7888        SWF CONST HEAD =           0.1160

           TOTAL OUT =         405.7145             TOTAL OUT =           0.1160

            IN - OUT =      -1.6835E-02              IN - OUT =       4.5710E-07

 PERCENT DISCREPANCY =          -0.00     PERCENT DISCREPANCY =           0.00






          TIME SUMMARY AT END OF TIME STEP       185 IN STRESS PERIOD         1
                    SECONDS     MINUTES      HOURS       DAYS        YEARS
                    -----------------------------------------------------------
   TIME STEP LENGTH  60.000      1.0000     1.66667E-02 6.94444E-04 1.90129E-06
 STRESS PERIOD TIME  3489.0      58.150     0.96917     4.03822E-02 1.10561E-04
         TOTAL TIME  3489.0      58.150     0.96917     4.03822E-02 1.10561E-04
1
 -------------------------------------------------------------------------------------
 
 SOLVING FOR HEAD 

 Outer-Iteration  Inner-Iteration  Backtracking  Number of        Incoming       Outgoing      Cutoff     Maximum Head Change      Maximum Head Change
     Number           Count           Flag       Backtracks       Residual       Residual      Residual            Value               Location
        1                             0             0          0.212418E-10     0.212418E-10   -1.00000    
        1                2                                                                                        0.00000                      1           GWF-node number
        1                2                                                                                      -0.156601E-05                 72           CLN-node number
     1 CALLS TO SPARSE MATRIX SOLVER PACKAGE  IN FLOW TIME STEP     186 STRESS PERIOD       1

 TOTAL OF       1OUTER ITERATIONS
  MAXIMUM CHANGE FOR EACH ITERATION:
   MAX. CHANGE        NODE  MAX. CHANGE        NODE  MAX. CHANGE        NODE  MAX. CHANGE        NODE  MAX. CHANGE        NODE
 ------------------------------------------------------------------------------------------------------------------------------------
    0.0000    ,          1
1
  VOLUMETRIC BUDGET FOR ENTIRE MODEL AT END OF TIME STEP     186 IN STRESS PERIOD       1
  ---------------------------------------------------------------------------------------

     CUMULATIVE VOLUMES      L**3       RATES FOR THIS TIME STEP      L**3/T
     ------------------                 ------------------------

           IN:                                      IN:
           ---                                      ---
             STORAGE =           0.0000               STORAGE =           0.0000
         SWF STORAGE =           0.3993           SWF STORAGE =       1.3333E-05
       CONSTANT HEAD =           0.0000         CONSTANT HEAD =           0.0000
      SWF CONST HEAD =         412.2584        SWF CONST HEAD =           0.1160

            TOTAL IN =         412.6577              TOTAL IN =           0.1160

          OUT:                                     OUT:
          ----                                     ----
             STORAGE =           0.0000               STORAGE =           0.0000
         SWF STORAGE =          45.9264           SWF STORAGE =       1.1274E-05
       CONSTANT HEAD =           0.0000         CONSTANT HEAD =           0.0000
      SWF CONST HEAD =         366.7481        SWF CONST HEAD =           0.1160

           TOTAL OUT =         412.6745             TOTAL OUT =           0.1160

            IN - OUT =      -1.6812E-02              IN - OUT =       3.8266E-07

 PERCENT DISCREPANCY =          -0.00     PERCENT DISCREPANCY =           0.00






          TIME SUMMARY AT END OF TIME STEP       186 IN STRESS PERIOD         1
                    SECONDS     MINUTES      HOURS       DAYS        YEARS
                    -----------------------------------------------------------
   TIME STEP LENGTH  60.000      1.0000     1.66667E-02 6.94444E-04 1.90129E-06
 STRESS PERIOD TIME  3549.0      59.150     0.98584     4.10767E-02 1.12462E-04
         TOTAL TIME  3549.0      59.150     0.98584     4.10767E-02 1.12462E-04
1
 -------------------------------------------------------------------------------------
 
 SOLVING FOR HEAD 

 Outer-Iteration  Inner-Iteration  Backtracking  Number of        Incoming       Outgoing      Cutoff     Maximum Head Change      Maximum Head Change
     Number           Count           Flag       Backtracks       Residual       Residual      Residual            Value               Location
        1                             0             0          0.175670E-10     0.175670E-10   -1.00000    
        1                2                                                                                        0.00000                      1           GWF-node number
        1                2                                                                                       0.132615E-05                 48           CLN-node number
     1 CALLS TO SPARSE MATRIX SOLVER PACKAGE  IN FLOW TIME STEP     187 STRESS PERIOD       1

 TOTAL OF       1OUTER ITERATIONS
  MAXIMUM CHANGE FOR EACH ITERATION:
   MAX. CHANGE        NODE  MAX. CHANGE        NODE  MAX. CHANGE        NODE  MAX. CHANGE        NODE  MAX. CHANGE        NODE
 ------------------------------------------------------------------------------------------------------------------------------------
    0.0000    ,          1
 UBUDSVU SAVING "         STORAGE" ON UNIT  50 AT TIME STEP    187, STRESS PERIOD      1
 UBUDSV SAVING "     SWF STORAGE" ON UNIT 144 AT TIME STEP    187, STRESS PERIOD       1
 UBUDSVU SAVING "   CONSTANT HEAD" ON UNIT  50 AT TIME STEP    187, STRESS PERIOD      1
 UBUDSVU SAVING "   FLOW JA FACE " ON UNIT  50 AT TIME STEP    187, STRESS PERIOD      1
 UBUDSVU SAVING "             SWF" ON UNIT  50 AT TIME STEP    187, STRESS PERIOD      1
 UBUDSVU SAVING "  SWF CONST HEAD" ON UNIT 144 AT TIME STEP    187, STRESS PERIOD      1
 UBUDSVU SAVING "   FLOW SWF FACE" ON UNIT 144 AT TIME STEP    187, STRESS PERIOD      1
 UBUDSVU SAVING "             GWF" ON UNIT 144 AT TIME STEP    187, STRESS PERIOD      1
1
             HEADU IN LAYER       1 AT END OF TIME STEP     187 IN STRESS PERIOD       1 STRESS TIME    3600.00     TOTAL TIME    3600.00    
  -----------------------------------------------------------------------------------------------------------------------------------------
        1..    999.0       999.0       999.0       999.0       999.0       999.0       999.0       999.0       999.0       999.0    
       11..    999.0       999.0       999.0       999.0       999.0       999.0       999.0       999.0       999.0       999.0    
       21..    999.0       999.0       999.0       999.0       999.0       999.0       999.0       999.0       999.0       999.0    
       31..    999.0       999.0       999.0       999.0       999.0       999.0       999.0       999.0       999.0       999.0    
       41..    999.0       999.0       999.0       999.0       999.0       999.0       999.0       999.0       999.0       999.0    
       51..    999.0       999.0       999.0       999.0       999.0       999.0       999.0       999.0       999.0       999.0    
       61..    999.0       999.0       999.0       999.0       999.0       999.0       999.0       999.0       999.0       999.0    
       71..    999.0       999.0       999.0       999.0       999.0       999.0       999.0       999.0       999.0       999.0    
       81..    999.0       999.0       999.0       999.0       999.0       999.0       999.0       999.0       999.0       999.0    
       91..    999.0       999.0       999.0       999.0       999.0       999.0       999.0       999.0       999.0       999.0    
      101..    999.0    

 HEAD WILL BE SAVED ON UNIT       30 AT END OF TIME STEP      187, STRESS PERIOD        1

 DRAWDOWN WILL BE SAVED ON UNIT   31 AT END OF TIME STEP 187, STRESS PERIOD    1
1
         SWF HEADS IN LAYER   1 AT END OF TIME STEP  187 IN STRESS PERIOD    1
  ---------------------------------------------------------------------------

            1           2           3           4           5           6           7           8           9          10
           11          12          13          14          15          16          17          18          19          20
           21          22          23          24          25          26          27          28          29          30
           31          32          33          34          35          36          37          38          39          40
           41          42          43          44          45          46          47          48          49          50
           51          52          53          54          55          56          57          58          59          60
           61          62          63          64          65          66          67          68          69          70
           71          72          73          74          75          76          77          78          79          80
           81          82          83          84          85          86          87          88          89          90
           91          92          93          94          95          96          97          98          99         100
          101
 ........................................................................................................................
   1    2.050       2.040       2.030       2.020       2.010       2.000       1.990       1.980       1.970       1.960    
        1.950       1.940       1.930       1.920       1.910       1.900       1.890       1.880       1.870       1.860    
        1.850       1.840       1.830       1.820       1.810       1.800       1.790       1.780       1.770       1.760    
        1.750       1.740       1.730       1.720       1.710       1.700       1.690       1.680       1.670       1.660    
        1.650       1.640       1.630       1.620       1.610       1.600       1.590       1.580       1.570       1.560    
        1.550       1.540       1.530       1.520       1.510       1.500       1.490       1.480       1.470       1.460    
        1.450       1.440       1.430       1.420       1.410       1.400       1.390       1.380       1.370       1.360    
        1.350       1.340       1.330       1.320       1.310       1.300       1.290       1.280       1.270       1.260    
        1.250       1.240       1.230       1.220       1.210       1.200       1.190       1.180       1.170       1.160    
        1.150       1.140       1.130       1.120       1.109       1.099       1.088       1.076       1.063       1.045    
        1.010    

 SWF HEAD WILL BE SAVED ON UNIT  145 AT END OF TIME STEP 187, STRESS PERIOD    1

 SWF DRAWDOWN WILL BE SAVED ON UNIT  146 AT END OF TIME STEP 187, STRESS PERIOD    1
1
  VOLUMETRIC BUDGET FOR ENTIRE MODEL AT END OF TIME STEP     187 IN STRESS PERIOD       1
  ---------------------------------------------------------------------------------------

     CUMULATIVE VOLUMES      L**3       RATES FOR THIS TIME STEP      L**3/T
     ------------------                 ------------------------

           IN:                                      IN:
           ---                                      ---
             STORAGE =           0.0000               STORAGE =           0.0000
         SWF STORAGE =           0.4000           SWF STORAGE =       1.5056E-05
       CONSTANT HEAD =           0.0000         CONSTANT HEAD =           0.0000
      SWF CONST HEAD =         418.1709        SWF CONST HEAD =           0.1160

            TOTAL IN =         418.5710              TOTAL IN =           0.1160

          OUT:                                     OUT:
          ----                                     ----
             STORAGE =           0.0000               STORAGE =           0.0000
         SWF STORAGE =          45.9270           SWF STORAGE =       1.1074E-05
       CONSTANT HEAD =           0.0000         CONSTANT HEAD =           0.0000
      SWF CONST HEAD =         372.6608        SWF CONST HEAD =           0.1160

           TOTAL OUT =         418.5878             TOTAL OUT =           0.1160

            IN - OUT =      -1.6795E-02              IN - OUT =       3.4632E-07

 PERCENT DISCREPANCY =          -0.00     PERCENT DISCREPANCY =           0.00






          TIME SUMMARY AT END OF TIME STEP       187 IN STRESS PERIOD         1
                    SECONDS     MINUTES      HOURS       DAYS        YEARS
                    -----------------------------------------------------------
   TIME STEP LENGTH  50.976     0.84959     1.41599E-02 5.89996E-04 1.61532E-06
 STRESS PERIOD TIME  3600.0      60.000      1.0000     4.16667E-02 1.14077E-04
         TOTAL TIME  3600.0      60.000      1.0000     4.16667E-02 1.14077E-04
1

 Run end date and time (yyyy/mm/dd hh:mm:ss): 2023/12/09 13:44:35
 Elapsed run time:  0.330 Seconds

